version 2
run WithChannelSwitching-0-20230808-15:32:31-25700
attr configname WithChannelSwitching
attr datetime 20230808-15:32:31
attr experiment WithChannelSwitching
attr inifile omnetpp.ini
attr iterationvars ""
attr iterationvarsf ""
attr measurement ""
attr network IntersectionScenario
attr processid 25700
attr repetition 0
attr replication #0
attr resultdir results
attr runnumber 0
attr seedset 0
param *.**.nic.mac1609_4.useServiceChannel true
param *.node[*].appl.dataOnSch true
param *.rsu[*].appl.dataOnSch true
param **.debug false
param **.coreDebug false
param *.playgroundSizeX 1000m
param *.playgroundSizeY 1000m
param *.playgroundSizeZ 100m
param *.annotations.draw true
param *.manager.updateInterval 1s
param *.manager.host "\"localhost\""
param *.manager.port 9999
param *.manager.autoShutdown true
param *.manager.launchConfig "xmldoc(\"mynet1.launchd.xml\")"
param *.rsu[0].mobility.x 16
param *.rsu[0].mobility.y 246
param *.rsu[0].mobility.z 0
param *.rsu[1].mobility.x 46
param *.rsu[1].mobility.y 246
param *.rsu[1].mobility.z 0
param *.rsu[2].mobility.x 76
param *.rsu[2].mobility.y 246
param *.rsu[2].mobility.z 0
param *.rsu[3].mobility.x 130
param *.rsu[3].mobility.y 236
param *.rsu[3].mobility.z 0
param *.rsu[4].mobility.x 130
param *.rsu[4].mobility.y 206
param *.rsu[4].mobility.z 0
param *.rsu[5].mobility.x 130
param *.rsu[5].mobility.y 186
param *.rsu[5].mobility.z 0
param *.rsu[6].mobility.x 130
param *.rsu[6].mobility.y 156
param *.rsu[6].mobility.z 0
param *.rsu[7].mobility.x 156
param *.rsu[7].mobility.y 156
param *.rsu[7].mobility.z 0
param *.rsu[8].mobility.x 186
param *.rsu[8].mobility.y 156
param *.rsu[8].mobility.z 0
param *.rsu[9].mobility.x 216
param *.rsu[9].mobility.y 156
param *.rsu[9].mobility.z 0
param *.rsu[10].mobility.x 256
param *.rsu[10].mobility.y 146
param *.rsu[10].mobility.z 0
param *.rsu[11].mobility.x 256
param *.rsu[11].mobility.y 106
param *.rsu[11].mobility.z 0
param *.rsu[12].mobility.x 256
param *.rsu[12].mobility.y 76
param *.rsu[12].mobility.z 0
param *.rsu[*].applType "\"IntersectionApp\""
param *.rsu[*].appl.headerLength "80 bit"
param *.rsu[*].appl.sendBeacons false
param *.rsu[*].appl.dataOnSch false
param *.rsu[*].appl.beaconInterval 1s
param *.rsu[*].appl.beaconUserPriority 1
param *.rsu[*].appl.dataUserPriority 1
param *.connectionManager.sendDirect true
param *.connectionManager.maxInterfDist 30m
param *.connectionManager.drawMaxIntfDist true
param *.**.nic.mac1609_4.useServiceChannel false
param *.**.nic.mac1609_4.txPower 10mW
param *.**.nic.mac1609_4.bitrate 6Mbps
param *.**.nic.phy80211p.sensitivity -89dBm
param *.**.nic.phy80211p.useThermalNoise true
param *.**.nic.phy80211p.thermalNoise -110dBm
param *.**.nic.phy80211p.decider "xmldoc(\"config.xml\")"
param *.**.nic.phy80211p.analogueModels "xmldoc(\"config.xml\")"
param *.**.nic.phy80211p.usePropagationDelay true
param *.**.nic.phy80211p.antenna "xmldoc(\"antenna.xml\", \"/root/Antenna[@id='monopole']\")"
param *.node[*].applType "\"IntersectionApp\""
param *.node[*].appl.headerLength "80 bit"
param *.node[*].appl.sendBeacons false
param *.node[*].appl.dataOnSch false
param *.node[*].appl.beaconInterval 1s
param *.node[*].veinsmobilityType.debug true
param *.node[*].veinsmobility.x 0
param *.node[*].veinsmobility.y 0
param *.node[*].veinsmobility.z 0

vector 0 IntersectionScenario.node[0].veinsmobility posx ETV
vector 1 IntersectionScenario.node[0].veinsmobility posy ETV
vector 2 IntersectionScenario.node[1].veinsmobility posx ETV
vector 3 IntersectionScenario.node[1].veinsmobility posy ETV
vector 4 IntersectionScenario.node[2].veinsmobility posx ETV
vector 5 IntersectionScenario.node[2].veinsmobility posy ETV
vector 6 IntersectionScenario.node[3].veinsmobility posx ETV
vector 7 IntersectionScenario.node[3].veinsmobility posy ETV
vector 8 IntersectionScenario.node[4].veinsmobility posx ETV
vector 9 IntersectionScenario.node[4].veinsmobility posy ETV
vector 10 IntersectionScenario.node[5].veinsmobility posx ETV
vector 11 IntersectionScenario.node[5].veinsmobility posy ETV
vector 12 IntersectionScenario.node[6].veinsmobility posx ETV
vector 13 IntersectionScenario.node[6].veinsmobility posy ETV
vector 14 IntersectionScenario.node[7].veinsmobility posx ETV
vector 15 IntersectionScenario.node[7].veinsmobility posy ETV
vector 16 IntersectionScenario.node[8].veinsmobility posx ETV
vector 17 IntersectionScenario.node[8].veinsmobility posy ETV
vector 18 IntersectionScenario.node[9].veinsmobility posx ETV
vector 19 IntersectionScenario.node[9].veinsmobility posy ETV
vector 20 IntersectionScenario.node[10].veinsmobility posx ETV
vector 21 IntersectionScenario.node[10].veinsmobility posy ETV
vector 22 IntersectionScenario.node[11].veinsmobility posx ETV
vector 23 IntersectionScenario.node[11].veinsmobility posy ETV
vector 24 IntersectionScenario.node[12].veinsmobility posx ETV
vector 25 IntersectionScenario.node[12].veinsmobility posy ETV
vector 26 IntersectionScenario.node[13].veinsmobility posx ETV
vector 27 IntersectionScenario.node[13].veinsmobility posy ETV
vector 28 IntersectionScenario.node[0].veinsmobility speed ETV
vector 29 IntersectionScenario.node[1].veinsmobility speed ETV
vector 30 IntersectionScenario.node[2].veinsmobility speed ETV
vector 31 IntersectionScenario.node[3].veinsmobility speed ETV
vector 32 IntersectionScenario.node[4].veinsmobility speed ETV
vector 33 IntersectionScenario.node[5].veinsmobility speed ETV
vector 34 IntersectionScenario.node[6].veinsmobility speed ETV
vector 35 IntersectionScenario.node[7].veinsmobility speed ETV
vector 36 IntersectionScenario.node[8].veinsmobility speed ETV
vector 37 IntersectionScenario.node[9].veinsmobility speed ETV
vector 38 IntersectionScenario.node[10].veinsmobility speed ETV
vector 39 IntersectionScenario.node[11].veinsmobility speed ETV
vector 40 IntersectionScenario.node[12].veinsmobility speed ETV
vector 41 IntersectionScenario.node[13].veinsmobility speed ETV
vector 42 IntersectionScenario.node[0].veinsmobility acceleration ETV
vector 43 IntersectionScenario.node[0].veinsmobility co2emission ETV
vector 44 IntersectionScenario.node[1].veinsmobility acceleration ETV
vector 45 IntersectionScenario.node[1].veinsmobility co2emission ETV
vector 46 IntersectionScenario.node[2].veinsmobility acceleration ETV
vector 47 IntersectionScenario.node[2].veinsmobility co2emission ETV
vector 48 IntersectionScenario.node[3].veinsmobility acceleration ETV
vector 49 IntersectionScenario.node[3].veinsmobility co2emission ETV
vector 50 IntersectionScenario.node[4].veinsmobility acceleration ETV
vector 51 IntersectionScenario.node[4].veinsmobility co2emission ETV
vector 52 IntersectionScenario.node[5].veinsmobility acceleration ETV
vector 53 IntersectionScenario.node[5].veinsmobility co2emission ETV
vector 54 IntersectionScenario.node[6].veinsmobility acceleration ETV
vector 55 IntersectionScenario.node[6].veinsmobility co2emission ETV
vector 56 IntersectionScenario.node[7].veinsmobility acceleration ETV
vector 57 IntersectionScenario.node[7].veinsmobility co2emission ETV
vector 58 IntersectionScenario.node[8].veinsmobility acceleration ETV
vector 59 IntersectionScenario.node[8].veinsmobility co2emission ETV
vector 60 IntersectionScenario.node[9].veinsmobility acceleration ETV
vector 61 IntersectionScenario.node[9].veinsmobility co2emission ETV
vector 62 IntersectionScenario.node[10].veinsmobility acceleration ETV
vector 63 IntersectionScenario.node[10].veinsmobility co2emission ETV
vector 64 IntersectionScenario.node[11].veinsmobility acceleration ETV
vector 65 IntersectionScenario.node[11].veinsmobility co2emission ETV
vector 66 IntersectionScenario.node[12].veinsmobility acceleration ETV
vector 67 IntersectionScenario.node[12].veinsmobility co2emission ETV
vector 68 IntersectionScenario.node[13].veinsmobility acceleration ETV
vector 69 IntersectionScenario.node[13].veinsmobility co2emission ETV
vector 70 IntersectionScenario.node[14].veinsmobility posx ETV
vector 71 IntersectionScenario.node[14].veinsmobility posy ETV
vector 72 IntersectionScenario.node[14].veinsmobility speed ETV
vector 73 IntersectionScenario.node[15].veinsmobility posx ETV
vector 74 IntersectionScenario.node[15].veinsmobility posy ETV
vector 75 IntersectionScenario.node[16].veinsmobility posx ETV
vector 76 IntersectionScenario.node[16].veinsmobility posy ETV
vector 77 IntersectionScenario.node[14].veinsmobility acceleration ETV
vector 78 IntersectionScenario.node[14].veinsmobility co2emission ETV
vector 79 IntersectionScenario.node[17].veinsmobility posx ETV
vector 80 IntersectionScenario.node[17].veinsmobility posy ETV
vector 81 IntersectionScenario.node[18].veinsmobility posx ETV
vector 82 IntersectionScenario.node[18].veinsmobility posy ETV
vector 83 IntersectionScenario.node[19].veinsmobility posx ETV
vector 84 IntersectionScenario.node[19].veinsmobility posy ETV
vector 85 IntersectionScenario.node[20].veinsmobility posx ETV
vector 86 IntersectionScenario.node[20].veinsmobility posy ETV
vector 87 IntersectionScenario.node[21].veinsmobility posx ETV
vector 88 IntersectionScenario.node[21].veinsmobility posy ETV
vector 89 IntersectionScenario.node[22].veinsmobility posx ETV
vector 90 IntersectionScenario.node[22].veinsmobility posy ETV
vector 91 IntersectionScenario.node[23].veinsmobility posx ETV
vector 92 IntersectionScenario.node[23].veinsmobility posy ETV
vector 93 IntersectionScenario.node[24].veinsmobility posx ETV
vector 94 IntersectionScenario.node[24].veinsmobility posy ETV
vector 95 IntersectionScenario.node[15].veinsmobility speed ETV
vector 96 IntersectionScenario.node[16].veinsmobility speed ETV
vector 97 IntersectionScenario.node[15].veinsmobility acceleration ETV
vector 98 IntersectionScenario.node[15].veinsmobility co2emission ETV
vector 99 IntersectionScenario.node[16].veinsmobility acceleration ETV
vector 100 IntersectionScenario.node[16].veinsmobility co2emission ETV
vector 101 IntersectionScenario.node[17].veinsmobility speed ETV
vector 102 IntersectionScenario.node[18].veinsmobility speed ETV
vector 103 IntersectionScenario.node[19].veinsmobility speed ETV
vector 104 IntersectionScenario.node[20].veinsmobility speed ETV
vector 105 IntersectionScenario.node[21].veinsmobility speed ETV
vector 106 IntersectionScenario.node[22].veinsmobility speed ETV
vector 107 IntersectionScenario.node[23].veinsmobility speed ETV
vector 108 IntersectionScenario.node[24].veinsmobility speed ETV
vector 109 IntersectionScenario.node[17].veinsmobility acceleration ETV
vector 110 IntersectionScenario.node[17].veinsmobility co2emission ETV
vector 111 IntersectionScenario.node[18].veinsmobility acceleration ETV
vector 112 IntersectionScenario.node[18].veinsmobility co2emission ETV
vector 113 IntersectionScenario.node[19].veinsmobility acceleration ETV
vector 114 IntersectionScenario.node[19].veinsmobility co2emission ETV
vector 115 IntersectionScenario.node[20].veinsmobility acceleration ETV
vector 116 IntersectionScenario.node[20].veinsmobility co2emission ETV
vector 117 IntersectionScenario.node[21].veinsmobility acceleration ETV
vector 118 IntersectionScenario.node[21].veinsmobility co2emission ETV
vector 119 IntersectionScenario.node[22].veinsmobility acceleration ETV
vector 120 IntersectionScenario.node[22].veinsmobility co2emission ETV
vector 121 IntersectionScenario.node[23].veinsmobility acceleration ETV
vector 122 IntersectionScenario.node[23].veinsmobility co2emission ETV
vector 123 IntersectionScenario.node[24].veinsmobility acceleration ETV
vector 124 IntersectionScenario.node[24].veinsmobility co2emission ETV
vector 125 IntersectionScenario.node[25].veinsmobility posx ETV
vector 126 IntersectionScenario.node[25].veinsmobility posy ETV
vector 127 IntersectionScenario.node[25].veinsmobility speed ETV
vector 128 IntersectionScenario.node[26].veinsmobility posx ETV
vector 129 IntersectionScenario.node[26].veinsmobility posy ETV
vector 130 IntersectionScenario.node[25].veinsmobility acceleration ETV
vector 131 IntersectionScenario.node[25].veinsmobility co2emission ETV
vector 132 IntersectionScenario.node[27].veinsmobility posx ETV
vector 133 IntersectionScenario.node[27].veinsmobility posy ETV
vector 134 IntersectionScenario.node[28].veinsmobility posx ETV
vector 135 IntersectionScenario.node[28].veinsmobility posy ETV
vector 136 IntersectionScenario.node[26].veinsmobility speed ETV
vector 137 IntersectionScenario.node[29].veinsmobility posx ETV
vector 138 IntersectionScenario.node[29].veinsmobility posy ETV
vector 139 IntersectionScenario.node[30].veinsmobility posx ETV
vector 140 IntersectionScenario.node[30].veinsmobility posy ETV
vector 141 IntersectionScenario.node[31].veinsmobility posx ETV
vector 142 IntersectionScenario.node[31].veinsmobility posy ETV
vector 143 IntersectionScenario.node[26].veinsmobility acceleration ETV
vector 144 IntersectionScenario.node[26].veinsmobility co2emission ETV
vector 145 IntersectionScenario.node[27].veinsmobility speed ETV
vector 146 IntersectionScenario.node[28].veinsmobility speed ETV
vector 147 IntersectionScenario.node[27].veinsmobility acceleration ETV
vector 148 IntersectionScenario.node[27].veinsmobility co2emission ETV
vector 149 IntersectionScenario.node[28].veinsmobility acceleration ETV
vector 150 IntersectionScenario.node[28].veinsmobility co2emission ETV
vector 151 IntersectionScenario.node[29].veinsmobility speed ETV
vector 152 IntersectionScenario.node[30].veinsmobility speed ETV
vector 153 IntersectionScenario.node[31].veinsmobility speed ETV
vector 154 IntersectionScenario.node[32].veinsmobility posx ETV
vector 155 IntersectionScenario.node[32].veinsmobility posy ETV
vector 156 IntersectionScenario.node[29].veinsmobility acceleration ETV
vector 157 IntersectionScenario.node[29].veinsmobility co2emission ETV
vector 158 IntersectionScenario.node[30].veinsmobility acceleration ETV
vector 159 IntersectionScenario.node[30].veinsmobility co2emission ETV
vector 160 IntersectionScenario.node[31].veinsmobility acceleration ETV
vector 161 IntersectionScenario.node[31].veinsmobility co2emission ETV
vector 162 IntersectionScenario.node[32].veinsmobility speed ETV
vector 163 IntersectionScenario.node[32].veinsmobility acceleration ETV
vector 164 IntersectionScenario.node[32].veinsmobility co2emission ETV
vector 165 IntersectionScenario.node[33].veinsmobility posx ETV
vector 166 IntersectionScenario.node[33].veinsmobility posy ETV
vector 167 IntersectionScenario.node[34].veinsmobility posx ETV
vector 168 IntersectionScenario.node[34].veinsmobility posy ETV
vector 169 IntersectionScenario.node[35].veinsmobility posx ETV
vector 170 IntersectionScenario.node[35].veinsmobility posy ETV
vector 171 IntersectionScenario.node[33].veinsmobility speed ETV
vector 172 IntersectionScenario.node[34].veinsmobility speed ETV
vector 173 IntersectionScenario.node[33].veinsmobility acceleration ETV
vector 174 IntersectionScenario.node[33].veinsmobility co2emission ETV
vector 175 IntersectionScenario.node[34].veinsmobility acceleration ETV
vector 176 IntersectionScenario.node[34].veinsmobility co2emission ETV
vector 177 IntersectionScenario.node[35].veinsmobility speed ETV
vector 178 IntersectionScenario.node[35].veinsmobility acceleration ETV
vector 179 IntersectionScenario.node[35].veinsmobility co2emission ETV
vector 180 IntersectionScenario.node[36].veinsmobility posx ETV
vector 181 IntersectionScenario.node[36].veinsmobility posy ETV
vector 182 IntersectionScenario.node[36].veinsmobility speed ETV
vector 183 IntersectionScenario.node[37].veinsmobility posx ETV
vector 184 IntersectionScenario.node[37].veinsmobility posy ETV
vector 185 IntersectionScenario.node[36].veinsmobility acceleration ETV
vector 186 IntersectionScenario.node[36].veinsmobility co2emission ETV
vector 187 IntersectionScenario.node[38].veinsmobility posx ETV
vector 188 IntersectionScenario.node[38].veinsmobility posy ETV
vector 189 IntersectionScenario.node[37].veinsmobility speed ETV
vector 190 IntersectionScenario.node[39].veinsmobility posx ETV
vector 191 IntersectionScenario.node[39].veinsmobility posy ETV
vector 192 IntersectionScenario.node[37].veinsmobility acceleration ETV
vector 193 IntersectionScenario.node[37].veinsmobility co2emission ETV
vector 194 IntersectionScenario.node[38].veinsmobility speed ETV
vector 195 IntersectionScenario.node[38].veinsmobility acceleration ETV
vector 196 IntersectionScenario.node[38].veinsmobility co2emission ETV
vector 197 IntersectionScenario.node[39].veinsmobility speed ETV
vector 198 IntersectionScenario.node[40].veinsmobility posx ETV
vector 199 IntersectionScenario.node[40].veinsmobility posy ETV
vector 200 IntersectionScenario.node[39].veinsmobility acceleration ETV
vector 201 IntersectionScenario.node[39].veinsmobility co2emission ETV
vector 202 IntersectionScenario.node[40].veinsmobility speed ETV
vector 203 IntersectionScenario.node[40].veinsmobility acceleration ETV
vector 204 IntersectionScenario.node[40].veinsmobility co2emission ETV
vector 205 IntersectionScenario.node[41].veinsmobility posx ETV
vector 206 IntersectionScenario.node[41].veinsmobility posy ETV
vector 207 IntersectionScenario.node[41].veinsmobility speed ETV
vector 208 IntersectionScenario.node[41].veinsmobility acceleration ETV
vector 209 IntersectionScenario.node[41].veinsmobility co2emission ETV
100	8336	8	1.2676883702083
100	9956	9	1.4951137629416
100	11488	10	0.973
100	13074	11	1.6017394343136
100	14659	12	0.973
100	16362	13	1.2323043537675
100	18193	14	1.1625186719482
100	20157	15	1.448583162324
100	22154	16	0.973
100	24250	17	1.2663826357395
100	26360	18	1.4451187337373
100	28495	19	0.973
100	30782	20	1.4995663368691
100	33144	21	0.973
100	35522	22	1.1568054247527
100	37838	23	1.4941253109329
100	40243	24	0.973
100	42651	25	0.973
100	45133	26	1.2696491854248
100	47654	27	0.973
100	50319	28	1.1980890158752
100	52934	29	1.1581864405691
100	55601	30	1.2035672197975
100	58334	31	1.3189481670986
100	61108	32	0.973
100	63884	33	1.2419827301684
100	66682	34	0.973
100	69518	35	1.3357920645242
100	72321	36	1.2193460471754
100	75226	37	0.973
100	78148	38	0.973
100	81079	39	1.3526388173181
100	83973	40	1.2862467481276
100	86878	41	0.973
100	89876	42	1.3490677020057
100	92902	43	0.973
100	95844	44	1.3382283423397
100	98870	45	0.973
100	101934	46	1.3105010904615
100	104944	47	1.2750919952806
100	108024	48	0.973
100	111115	49	1.1555551254217
100	114235	50	1.5347152659107
100	117360	51	0.973
100	120485	52	1.1721124455817
100	123653	53	1.2047761323016
100	126886	54	0.973
100	130060	55	1.2979085034278
100	133194	56	0.973
100	136352	57	0.973
100	139525	58	1.1757331419258
100	142723	59	1.5016741210302
100	145943	60	0.973
100	149187	61	1.3437134553901
100	152353	62	1.1968410888842
100	155512	63	0.973
100	158681	64	1.5488950604269
100	161874	65	1.2168963623105
100	165128	66	0.973
100	168444	67	1.6280772077667
100	171811	68	0.973
100	175137	69	1.3297872655379
100	178533	70	0.973
100	181951	71	1.185499091592
100	185360	72	0.973
100	188758	73	1.3451239190585
100	192131	74	1.2442600736559
100	195620	75	0.973
100	199095	76	1.2008480421524
100	202589	77	1.1912838200702
100	206074	78	0.973
100	209555	79	1.5940797287276
100	213062	80	0.973
100	216570	81	0.973
100	220110	82	1.1619770395421
100	223685	83	1.3345028581993
100	227188	84	0.973
100	230709	85	1.3011228410107
100	234276	86	0.973
100	237839	87	1.4305951153085
100	241381	88	1.1661130413803
99	8336	8	0.63572354994244
99	9956	9	0.80526889763055
99	11488	10	-0.82707576348528
99	13074	11	0.97452723999161
99	14659	12	-0.37419091584161
99	16362	13	0.13759669708088
99	18193	14	-0.050491872010753
99	20157	15	0.51425687060691
99	22154	16	-1.3048908493952
99	24250	17	0.40823623212104
99	26360	18	0.62241812492721
99	28495	19	-0.59605110463
99	30782	20	0.70037690273731
99	33144	21	-0.53952415892854
99	35522	22	-0.040547915734351
99	37838	23	0.65294396565975
99	40243	24	-0.3992509858071
99	42651	25	-0.20104002439453
99	45133	26	0.23930116059877
99	47654	27	-0.56003231508777
99	50319	28	0.13729956982453
99	52934	29	-0.013433262280748
99	55601	30	0.12473120718063
99	58334	31	0.35793941072188
99	61108	32	-0.34645131998695
99	63884	33	0.19141694158316
99	66682	34	-0.36300331889652
99	69518	35	0.43658390967175
99	72321	36	0.089871121337637
99	75226	37	-0.24003114295192
99	78148	38	-0.22703572153114
99	81079	39	0.45121306576766
99	83973	40	0.21461818669923
99	86878	41	-0.14053839375265
99	89876	42	0.31239791028202
99	92902	43	-0.45414166641422
99	95844	44	0.32458771648817
99	98870	45	-0.4821438069921
99	101934	46	0.30982119450346
99	104944	47	0.17789593781345
99	108024	48	-0.47981453244574
99	111115	49	-0.052389840595424
99	114235	50	0.69395389757119
99	117360	51	-0.2070637147408
99	120485	52	-0.050576444948092
99	123653	53	0.025293914601207
99	126886	54	-0.22034611785784
99	130060	55	0.24232832551934
99	133194	56	-0.21633252757601
99	136352	57	-0.46332865185104
99	139525	58	0.042777019785717
99	142723	59	0.69417289667763
99	145943	60	-0.28997619147412
99	149187	61	0.32329754950479
99	152353	62	-0.0058566406369209
99	155512	63	-0.85075168587345
99	158681	64	0.80972421933975
99	161874	65	0.039517628261819
99	165128	66	-0.71384924975673
99	168444	67	0.87318238988037
99	171811	68	-0.76680180851985
99	175137	69	0.36831991015921
99	178533	70	-0.3322025011392
99	181951	71	0.038693922851792
99	185360	72	-0.30402022452401
99	188758	73	0.46374565036967
99	192131	74	0.14441219053304
99	195620	75	-0.61933170168812
99	199095	76	0.13392570559946
99	202589	77	0.079013756476343
99	206074	78	-0.16753558954224
99	209555	79	0.85785318468697
99	213062	80	-0.21584580745548
99	216570	81	-0.4822346388828
99	220110	82	-0.017927182838321
99	223685	83	0.39161719172262
99	227188	84	-0.42045451863669
99	230709	85	0.33323778584599
99	234276	86	-0.1474662902765
99	237839	87	0.5163186932914
99	241381	88	-0.070761304115877
96	6766	7	0.14682591160513
96	8336	8	0.78254946154757
96	9956	9	1.5878183591781
96	11488	10	0.76074259569284
96	13074	11	1.7352698356844
96	14659	12	1.3610789198428
96	16362	13	1.4986756169237
96	18193	14	1.448183744913
96	20157	15	1.9624406155199
96	22154	16	0.65754976612466
96	24250	17	1.0657859982457
96	26360	18	1.6882041231729
96	28495	19	1.0921530185429
96	30782	20	1.7925299212802
96	33144	21	1.2530057623517
96	35522	22	1.2124578466173
96	37838	23	1.8654018122771
96	40243	24	1.46615082647
96	42651	25	1.2651108020754
96	45133	26	1.5044119626742
96	47654	27	0.94437964758644
96	50319	28	1.081679217411
96	52934	29	1.0682459551302
96	55601	30	1.1929771623109
96	58334	31	1.5509165730327
96	61108	32	1.2044652530458
96	63884	33	1.3958821946289
96	66682	34	1.0328788757324
96	69518	35	1.4694627854042
96	72321	36	1.5593339067418
96	75226	37	1.3193027637899
96	78148	38	1.0922670422588
96	81079	39	1.5434801080264
96	83973	40	1.7580982947256
96	86878	41	1.617559900973
96	89876	42	1.929957811255
96	92902	43	1.4758161448408
96	95844	44	1.800403861329
96	98870	45	1.3182600543369
96	101934	46	1.6280812488403
96	104944	47	1.8059771866538
96	108024	48	1.326162654208
96	111115	49	1.2737728136126
96	114235	50	1.9677267111838
96	117360	51	1.760662996443
96	120485	52	1.7100865514949
96	123653	53	1.7353804660961
96	126886	54	1.5150343482383
96	130060	55	1.7573626737576
96	133194	56	1.5410301461816
96	136352	57	1.0777014943305
96	139525	58	1.1204785141163
96	142723	59	1.8146514107939
96	145943	60	1.5246752193198
96	149187	61	1.8479727688245
96	152353	62	1.8421161281876
96	155512	63	0.99136444231417
96	158681	64	1.8010886616539
96	161874	65	1.8406062899157
96	165128	66	1.126757040159
96	168444	67	1.9999394300394
96	171811	68	1.2331376215195
96	175137	69	1.6014575316787
96	178533	70	1.2692550305395
96	181951	71	1.3079489533913
96	185360	72	1.0039287288673
96	188758	73	1.467674379237
96	192131	74	1.61208656977
96	195620	75	0.99275486808191
96	199095	76	1.1266805736814
96	202589	77	1.2056943301577
96	206074	78	1.0381587406155
96	209555	79	1.8960119253024
96	213062	80	1.680166117847
96	216570	81	1.1979314789642
96	220110	82	1.1800042961258
96	223685	83	1.5716214878485
96	227188	84	1.1511669692118
96	230709	85	1.4844047550578
96	234276	86	1.3369384647813
96	237839	87	1.8532571580727
96	241381	88	1.7824958539568
76	5557	6	111.97358038862
76	6766	7	111.97358038862
76	8336	8	111.86975375194
76	9956	9	111.31638086468
76	11488	10	110.19356924315
76	13074	11	109.655616887
76	14659	12	108.42853626613
76	16362	13	107.4660614212
76	18193	14	106.4062862965
76	20157	15	105.38221604973
76	22154	16	103.99449363365
76	24250	17	103.52951316855
76	26360	18	102.7758520851
76	28495	19	101.58205356396
76	30782	20	100.80974727676
76	33144	21	99.542175695961
76	35522	22	98.656123822526
76	37838	23	97.798745046838
76	40243	24	96.479642756857
76	42651	25	95.442867248265
76	45133	26	94.548255403721
76	47654	27	93.484423873175
76	50319	28	92.816614210108
76	52934	29	92.051714378168
76	55601	30	91.296313758098
76	58334	31	90.452710574944
76	61108	32	89.355993723062
76	63884	33	88.504266838785
76	66682	34	87.517181167827
76	69518	35	86.786790063195
76	72321	36	85.747672532318
76	75226	37	84.645003437815
76	78148	38	83.712070229839
76	81079	39	82.939683311787
76	83973	40	81.848225089951
76	86878	41	80.605001527435
76	89876	42	79.461158439308
76	92902	43	78.096405949181
76	95844	44	77.052795696721
76	98870	45	75.77965612929
76	101934	46	74.847460264023
76	104944	47	73.696177098389
76	108024	48	72.419096403555
76	111115	49	71.48131228512
76	114235	50	70.580575176208
76	117360	51	69.189114744629
76	120485	52	67.944077576119
76	123653	53	66.734805090537
76	126886	54	65.507646238354
76	130060	55	64.436303182393
76	133194	56	63.193599807698
76	136352	57	62.103874054577
76	139525	58	61.341787034112
76	142723	59	60.549450624811
76	145943	60	59.266236029574
76	149187	61	58.188075517429
76	152353	62	56.881298020413
76	155512	63	55.5786619947
76	158681	64	54.877627452193
76	161874	65	53.604003634306
76	165128	66	52.30243527729
76	168444	67	51.505659064175
76	171811	68	50.091419695142
76	175137	69	49.219417400676
76	178533	70	48.086960959688
76	181951	71	47.189418560868
76	185360	72	46.264514098869
76	188758	73	45.554594832945
76	192131	74	44.516741957572
76	195620	75	43.376769286894
76	199095	76	42.674751517179
76	202589	77	41.878029376653
76	206074	78	41.025433361435
76	209555	79	40.291308647341
76	213062	80	38.950560688356
76	216570	81	37.762446171145
76	220110	82	36.915339587061
76	223685	83	36.080910050775
76	227188	84	34.969551902649
76	230709	85	34.155514425445
76	234276	86	33.105830813707
76	237839	87	32.160426676727
76	241381	88	30.849912370884
75	5557	6	214.23358038862
75	6766	7	214.23358038862
75	8336	8	214.12975375194
75	9956	9	213.57638086468
75	11488	10	212.45356924315
75	13074	11	211.915616887
75	14659	12	210.68853626613
75	16362	13	209.7260614212
75	18193	14	208.6662862965
75	20157	15	207.64221604973
75	22154	16	206.25449363365
75	24250	17	205.78951316855
75	26360	18	205.0358520851
75	28495	19	203.84205356396
75	30782	20	203.06974727676
75	33144	21	201.80217569596
75	35522	22	200.91612382253
75	37838	23	200.05874504684
75	40243	24	198.73964275686
75	42651	25	197.70286724826
75	45133	26	196.80825540372
75	47654	27	195.74442387318
75	50319	28	195.07661421011
75	52934	29	194.31171437817
75	55601	30	193.5563137581
75	58334	31	192.71271057494
75	61108	32	191.61599372306
75	63884	33	190.76426683879
75	66682	34	189.77718116783
75	69518	35	189.0467900632
75	72321	36	188.00767253232
75	75226	37	186.90500343782
75	78148	38	185.97207022984
75	81079	39	185.19968331179
75	83973	40	184.10822508995
75	86878	41	182.86500152744
75	89876	42	181.72115843931
75	92902	43	180.35640594918
75	95844	44	179.31279569672
75	98870	45	178.03965612929
75	101934	46	177.10746026402
75	104944	47	175.95617709839
75	108024	48	174.67909640355
75	111115	49	173.74131228512
75	114235	50	172.84057517621
75	117360	51	171.44911474463
75	120485	52	170.20407757612
75	123653	53	168.99480509054
75	126886	54	167.76764623835
75	130060	55	166.69630318239
75	133194	56	165.4535998077
75	136352	57	164.36387405458
75	139525	58	163.60178703411
75	142723	59	162.80945062481
75	145943	60	161.52623602957
75	149187	61	160.44807551743
75	152353	62	159.14129802041
75	155512	63	157.8386619947
75	158681	64	157.13762745219
75	161874	65	155.86400363431
75	165128	66	154.56243527729
75	168444	67	153.76565906417
75	171811	68	152.35141969514
75	175137	69	151.47941740068
75	178533	70	150.34696095969
75	181951	71	149.44941856087
75	185360	72	148.52451409887
75	188758	73	147.81459483294
75	192131	74	146.77674195757
75	195620	75	145.63676928689
75	199095	76	144.93475151718
75	202589	77	144.13802937665
75	206074	78	143.28543336144
75	209555	79	142.55130864734
75	213062	80	141.21056068836
75	216570	81	140.02244617114
75	220110	82	139.17533958706
75	223685	83	138.34091005077
75	227188	84	137.22955190265
75	230709	85	136.41551442545
75	234276	86	135.36583081371
75	237839	87	134.42042667673
75	241381	88	133.10991237088
0	432	1	138.10652857143
0	1436	2	138.10652857143
0	2469	3	139.97764535592
0	3449	4	141.83903016761
0	4502	5	143.14763054698
0	5557	6	144.36985470081
0	6766	7	146.31073882646
0	8336	8	148.51204371076
0	9956	9	150.58642029907
0	11488	10	152.88698811326
0	13074	11	155.06577017329
0	14659	12	157.22941513511
0	16362	13	158.87842834624
0	18193	14	160.07662416277
0	20157	15	162.27377941145
0	22154	16	163.76287166774
0	24250	17	164.9493641108
0	26360	18	166.68654794454
0	28495	19	168.21466568229
0	30782	20	170.22598646532
0	33144	21	172.24817147687
0	35522	22	174.37341125248
0	37838	23	175.87494950607
0	40243	24	177.19255730723
0	42651	25	179.41491602321
0	45133	26	181.04565625562
0	47654	27	182.93244144843
0	50319	28	185.06357478692
0	52934	29	186.2753148958
0	55601	30	187.61255564614
0	58334	31	188.80051348167
0	61108	32	190.69923593175
0	63884	33	192.7000007989
0	66682	34	194.30779445297
0	69518	35	196.19205250462
0	72321	36	197.51661704138
0	75226	37	199.13756277886
0	78148	38	200.44419606903
0	81079	39	201.95387796684
0	83973	40	203.71698079313
0	86878	41	205.1477945149
0	89876	42	207.24511866443
0	92902	43	208.73476037646
0	95844	44	211.05104609075
0	98870	45	213.35350986048
0	101934	46	215.24398638574
0	104944	47	217.13803907014
0	108024	48	218.92112603864
0	111115	49	220.44205147262
0	114235	50	221.50497282809
0	117360	51	222.10462583868
0	120485	52	221.94370892033
0	123653	53	221.72264693251
0	126886	54	220.61526031567
0	130060	55	219.39907559298
0	133194	56	218.59136223337
0	136352	57	217.87626225858
0	139525	58	216.96183795519
0	142723	59	215.67387635673
0	145943	60	214.42392183167
0	149187	61	213.24342085048
0	152353	62	211.85050011382
0	155512	63	210.68670484301
0	158681	64	209.57195887347
0	161874	65	208.44932538676
0	165128	66	207.19808961864
0	168444	67	206.19971348588
0	171811	68	205.05406987702
0	175137	69	203.68284707278
0	178533	70	202.73824594468
0	181951	71	201.96656650734
0	185360	72	200.86402569102
0	188758	73	200.10106258768
0	192131	74	199.12150944042
0	195620	75	198.08365282417
0	199095	76	196.87242810686
0	202589	77	195.76310285472
0	206074	78	195.04915093754
0	209555	79	193.81523481977
0	213062	80	192.75944891732
0	216570	81	192.03138372121
0	220110	82	191.30839064974
0	223685	83	190.58743658222
0	227188	84	189.70569262607
0	230709	85	188.3960600611
0	234276	86	187.49261059479
0	237839	87	186.65890198685
0	241381	88	185.51550175304
0	244932	89	184.1014793209
0	248444	90	183.16217662474
0	251926	91	182.32639045501
0	255345	92	181.40443346709
0	258899	93	180.58673675972
0	262431	94	179.52148422801
0	265938	95	178.44755423988
0	269438	96	177.26008607316
0	272958	97	175.85490991217
0	276468	98	174.7699656371
0	279976	99	173.99854028927
0	283483	100	172.94854391265
0	287016	101	172.1239789223
0	290521	102	171.21518600591
0	294091	103	169.84248986897
0	297719	104	168.88556916821
0	301330	105	168.15311931435
1	432	1	126.6
1	1436	2	126.6
1	2469	3	126.6
1	3449	4	126.6
1	4502	5	126.6
1	5557	6	126.6
1	6766	7	126.6
1	8336	8	126.6
1	9956	9	126.6
1	11488	10	126.6
1	13074	11	126.6
1	14659	12	126.6
1	16362	13	126.6
1	18193	14	126.6
1	20157	15	126.6
1	22154	16	126.6
1	24250	17	126.6
1	26360	18	126.6
1	28495	19	126.6
1	30782	20	126.6
1	33144	21	126.6
1	35522	22	126.6
1	37838	23	126.6
1	40243	24	126.6
1	42651	25	126.6
1	45133	26	126.6
1	47654	27	126.6
1	50319	28	126.6
1	52934	29	126.6
1	55601	30	126.6
1	58334	31	126.6
1	61108	32	126.6
1	63884	33	126.6
1	66682	34	126.6
1	69518	35	126.6
1	72321	36	126.6
1	75226	37	126.6
1	78148	38	126.6
1	81079	39	126.6
1	83973	40	126.6
1	86878	41	126.6
1	89876	42	126.6
1	92902	43	126.6
1	95844	44	126.6
1	98870	45	126.59061534141
1	101934	46	126.37816765372
1	104944	47	126.16531808495
1	108024	48	125.96493860478
1	111115	49	125.14701908989
1	114235	50	124.36121651637
1	117360	51	123.14290939432
1	120485	52	122.07838208834
1	123653	53	120.61597201508
1	126886	54	119.05448174585
1	130060	55	117.53188165147
1	133194	56	116.52066648438
1	136352	57	115.62539846399
1	139525	58	114.70183795519
1	142723	59	113.41387635673
1	145943	60	112.16392183167
1	149187	61	110.98342085048
1	152353	62	109.59050011382
1	155512	63	108.42670484301
1	158681	64	107.31195887347
1	161874	65	106.18932538676
1	165128	66	104.93808961864
1	168444	67	103.93971348588
1	171811	68	102.79406987702
1	175137	69	101.42284707278
1	178533	70	100.47824594468
1	181951	71	99.706566507341
1	185360	72	98.604025691022
1	188758	73	97.841062587683
1	192131	74	96.861509440422
1	195620	75	95.823652824171
1	199095	76	94.612428106858
1	202589	77	93.50310285472
1	206074	78	92.789150937539
1	209555	79	91.555234819768
1	213062	80	90.499448917322
1	216570	81	89.771383721205
1	220110	82	89.048390649736
1	223685	83	88.327436582222
1	227188	84	87.445692626074
1	230709	85	86.1360600611
1	234276	86	85.232610594787
1	237839	87	84.39890198685
1	241381	88	83.255501753037
1	244932	89	81.841479320905
1	248444	90	80.90217662474
1	251926	91	80.066390455006
1	255345	92	79.14443346709
1	258899	93	78.326736759721
1	262431	94	77.261484228011
1	265938	95	76.18755423988
1	269438	96	75.00008607316
1	272958	97	73.594909912167
1	276468	98	72.509965637104
1	279976	99	71.738540289268
1	283483	100	70.688543912649
1	287016	101	69.863978922304
1	290521	102	68.955186005905
1	294091	103	67.582489868969
1	297719	104	66.625569168212
1	301330	105	65.89311931435
2	432	1	214.23358038862
2	1436	2	214.23358038862
2	2469	3	213.02969713621
2	3449	4	212.20664059617
2	4502	5	211.12726610614
2	5557	6	210.08200430657
2	6766	7	208.77356335389
2	8336	8	208.04507300517
2	9956	9	207.09263054208
2	11488	10	206.15472075425
2	13074	11	205.03338093911
2	14659	12	203.82374968017
2	16362	13	202.81413031888
2	18193	14	201.86632676654
2	20157	15	200.86987498171
2	22154	16	200.06948039883
2	24250	17	198.90975347905
2	26360	18	198.19723555764
2	28495	19	197.12792344927
2	30782	20	195.93993852459
2	33144	21	195.02884649057
2	35522	22	194.1557572311
2	37838	23	193.43270201602
2	40243	24	192.37014569441
2	42651	25	191.18590378383
2	45133	26	190.09417732364
2	47654	27	189.24546366396
2	50319	28	188.47506505775
2	52934	29	187.6710616202
2	55601	30	186.32641726334
2	58334	31	185.36382975277
2	61108	32	184.11404765835
2	63884	33	182.86792873238
2	66682	34	181.72117649696
2	69518	35	180.96040494199
2	72321	36	179.56346707426
2	75226	37	178.64169622459
2	78148	38	177.88032168969
2	81079	39	176.80169672999
2	83973	40	176.04379612802
2	86878	41	174.64485091509
2	89876	42	173.64147562845
2	92902	43	172.69504313353
2	95844	44	171.95841945267
2	98870	45	170.77904308234
2	101934	46	169.50655399385
2	104944	47	168.11553768122
2	108024	48	167.0216570462
2	111115	49	165.77862928077
2	114235	50	164.89133193534
2	117360	51	163.98269281598
2	120485	52	163.23108459507
2	123653	53	161.9509849773
2	126886	54	160.68623115264
2	130060	55	159.67124786613
2	133194	56	158.30565371889
2	136352	57	157.23899602192
2	139525	58	156.24253347843
2	142723	59	155.23421525169
2	145943	60	154.43959011513
2	149187	61	153.26936901919
2	152353	62	152.30829873033
2	155512	63	151.26496653462
2	158681	64	149.99408974621
2	161874	65	149.07194017539
2	165128	66	148.10597618672
2	168444	67	147.03555696339
2	171811	68	145.88258004692
2	175137	69	145.022183213
2	178533	70	143.90833268206
2	181951	71	143.0566133207
2	185360	72	141.75150635361
2	188758	73	140.91960572134
2	192131	74	140.20838659916
2	195620	75	138.97658867686
2	199095	76	138.10483224577
2	202589	77	136.9947236892
2	206074	78	135.92492394957
2	209555	79	134.7219003683
2	213062	80	133.5259968522
2	216570	81	132.56769829932
2	220110	82	131.48466325425
2	223685	83	129.92227163231
2	227188	84	128.74276261635
2	230709	85	127.79055466419
2	234276	86	126.0675037462
2	237839	87	124.78861105569
2	241381	88	123.85278127653
2	244932	89	123.63975962338
2	248444	90	123.51412712748
2	251926	91	123.4
2	255345	92	123.4
2	258899	93	123.4
2	262431	94	123.4
2	265938	95	123.4
2	269438	96	123.4
2	272958	97	123.4
2	276468	98	123.4
2	279976	99	123.4
2	283483	100	123.4
2	287016	101	123.4
2	290521	102	123.4
2	294091	103	123.4
2	297719	104	123.4
2	301330	105	123.4
3	432	1	111.97358038862
3	1436	2	111.97358038862
3	2469	3	110.76969713621
3	3449	4	109.94664059617
3	4502	5	108.86726610614
3	5557	6	107.82200430657
3	6766	7	106.51356335389
3	8336	8	105.78507300517
3	9956	9	104.83263054208
3	11488	10	103.89472075425
3	13074	11	102.77338093911
3	14659	12	101.56374968017
3	16362	13	100.55413031888
3	18193	14	99.606326766538
3	20157	15	98.609874981715
3	22154	16	97.809480398826
3	24250	17	96.649753479052
3	26360	18	95.937235557638
3	28495	19	94.867923449267
3	30782	20	93.679938524593
3	33144	21	92.76884649057
3	35522	22	91.895757231099
3	37838	23	91.172702016024
3	40243	24	90.110145694408
3	42651	25	88.925903783833
3	45133	26	87.834177323636
3	47654	27	86.985463663963
3	50319	28	86.215065057754
3	52934	29	85.411061620202
3	55601	30	84.066417263341
3	58334	31	83.103829752768
3	61108	32	81.854047658346
3	63884	33	80.607928732377
3	66682	34	79.461176496956
3	69518	35	78.700404941995
3	72321	36	77.303467074265
3	75226	37	76.38169622459
3	78148	38	75.620321689691
3	81079	39	74.541696729991
3	83973	40	73.783796128016
3	86878	41	72.384850915089
3	89876	42	71.381475628452
3	92902	43	70.435043133534
3	95844	44	69.698419452671
3	98870	45	68.519043082336
3	101934	46	67.246553993848
3	104944	47	65.855537681215
3	108024	48	64.761657046198
3	111115	49	63.518629280771
3	114235	50	62.631331935341
3	117360	51	61.722692815976
3	120485	52	60.971084595069
3	123653	53	59.690984977299
3	126886	54	58.42623115264
3	130060	55	57.411247866126
3	133194	56	56.045653718893
3	136352	57	54.978996021919
3	139525	58	53.982533478426
3	142723	59	52.97421525169
3	145943	60	52.179590115126
3	149187	61	51.009369019186
3	152353	62	50.048298730335
3	155512	63	49.004966534623
3	158681	64	47.734089746212
3	161874	65	46.811940175388
3	165128	66	45.845976186719
3	168444	67	44.77555696339
3	171811	68	43.622580046916
3	175137	69	42.762183213002
3	178533	70	41.648332682061
3	181951	71	40.796613320703
3	185360	72	39.491506353613
3	188758	73	38.659605721336
3	192131	74	37.948386599159
3	195620	75	36.71658867686
3	199095	76	35.844832245766
3	202589	77	34.734723689196
3	206074	78	33.664923949567
3	209555	79	32.461900368304
3	213062	80	31.265996852197
3	216570	81	30.307698299318
3	220110	82	29.245848298087
3	223685	83	27.997680689495
3	227188	84	27.055391363898
3	230709	85	26.436568874623
3	234276	86	26.174072836335
3	237839	87	26.977599281557
3	241381	88	28.68160270395
3	244932	89	30.586266896867
3	248444	90	31.709569213117
3	251926	91	33.031023250185
3	255345	92	34.998247346366
3	258899	93	36.748444391405
3	262431	94	38.005546099963
3	265938	95	39.241609713519
3	269438	96	40.267716384949
3	272958	97	41.499473134512
3	276468	98	42.996963738222
3	279976	99	44.819311998775
3	283483	100	46.209625530746
3	287016	101	47.254561387692
3	290521	102	49.15136826084
3	294091	103	50.45011141872
3	297719	104	51.814797514342
3	301330	105	53.170498891724
4	432	1	132.93641961138
4	1436	2	132.93641961138
4	2469	3	134.05111809279
4	3449	4	135.09139695659
4	4502	5	135.95541253188
4	5557	6	136.91718028038
4	6766	7	138.17833082341
4	8336	8	139.15909065301
4	9956	9	140.26321969679
4	11488	10	141.12710181699
4	13074	11	142.34139959305
4	14659	12	143.69690953834
4	16362	13	144.61355018384
4	18193	14	145.74744687995
4	20157	15	146.95660328024
4	22154	16	147.99113478703
4	24250	17	149.14144775394
4	26360	18	149.88810407498
4	28495	19	150.63458174563
4	30782	20	151.54347237074
4	33144	21	152.61591646958
4	35522	22	153.75012857542
4	37838	23	154.50710239121
4	40243	24	155.32106171284
4	42651	25	156.05589823861
4	45133	26	156.8835345968
4	47654	27	158.11436843889
4	50319	28	159.06938863663
4	52934	29	160.4767645917
4	55601	30	161.80635154922
4	58334	31	162.67536498906
4	61108	32	163.73771863624
4	63884	33	164.89876832283
4	66682	34	165.8183522447
4	69518	35	166.54665448899
4	72321	36	167.71930790952
4	75226	37	168.7523890485
4	78148	38	169.72591396824
4	81079	39	170.49820002448
4	83973	40	171.78897410109
4	86878	41	172.69312000115
4	89876	42	173.6857968156
4	92902	43	174.90826552408
4	95844	44	176.24491462017
4	98870	45	177.58847276661
4	101934	46	178.5306723021
4	104944	47	179.2542177997
4	108024	48	180.40209076614
4	111115	49	181.51607630131
4	114235	50	182.38588305792
4	117360	51	183.37184144058
4	120485	52	184.26476365652
4	123653	53	185.3023740088
4	126886	54	186.31510896102
4	130060	55	187.66118679337
4	133194	56	188.73916038357
4	136352	57	189.90912133209
4	139525	58	190.94514795943
4	142723	59	191.69584044836
4	145943	60	192.69387181946
4	149187	61	193.73633289467
4	152353	62	194.65211734812
4	155512	63	195.77502033271
4	158681	64	196.61834370434
4	161874	65	197.85917979016
4	165128	66	199.04229563705
4	168444	67	200.43269656941
4	171811	68	201.24681289468
4	175137	69	202.17684546615
4	178533	70	203.05553435784
4	181951	71	203.78264294759
4	185360	72	204.7453383539
4	188758	73	205.9331046735
4	192131	74	207.30938967599
4	195620	75	208.02894472144
4	199095	76	208.87022901486
4	202589	77	209.75872972784
4	206074	78	210.71886208295
4	209555	79	211.51581676551
4	213062	80	212.28763418302
4	216570	81	213.51455360298
4	220110	82	214.8037174532
4	223685	83	215.7064655451
4	227188	84	216.46042770097
4	230709	85	217.23254021211
4	234276	86	217.74170008314
4	237839	87	216.95335231557
4	241381	88	215.28330441508
4	244932	89	214.09262477023
4	248444	90	213.00725146855
4	251926	91	211.47358682065
4	255345	92	209.30743300353
4	258899	93	207.97520954961
4	262431	94	206.7662585566
4	265938	95	205.33239258905
4	269438	96	203.27805684016
4	272958	97	201.8496836964
4	276468	98	200.42666077601
4	279976	99	199.23035340197
4	283483	100	197.50705701918
4	287016	101	195.71675956733
4	290521	102	193.86239625982
4	294091	103	192.26072547512
4	297719	104	190.58487461663
4	301330	105	188.88482792541
5	432	1	35.19641961138
5	1436	2	35.19641961138
5	2469	3	36.311118092785
5	3449	4	37.351396956587
5	4502	5	38.215412531878
5	5557	6	39.177180280378
5	6766	7	40.438330823412
5	8336	8	41.419090653008
5	9956	9	42.523219696788
5	11488	10	43.387101816991
5	13074	11	44.601399593049
5	14659	12	45.956909538343
5	16362	13	46.87355018384
5	18193	14	48.007446879953
5	20157	15	49.216603280236
5	22154	16	50.251134787027
5	24250	17	51.401447753941
5	26360	18	52.148104074982
5	28495	19	52.894581745629
5	30782	20	53.803472370738
5	33144	21	54.875916469582
5	35522	22	56.010128575419
5	37838	23	56.767102391211
5	40243	24	57.58106171284
5	42651	25	58.31589823861
5	45133	26	59.143534596804
5	47654	27	60.374368438888
5	50319	28	61.329388636626
5	52934	29	62.736764591703
5	55601	30	64.066351549218
5	58334	31	64.935364989063
5	61108	32	65.99771863624
5	63884	33	67.158768322825
5	66682	34	68.078352244695
5	69518	35	68.806654488992
5	72321	36	69.979307909524
5	75226	37	71.012389048502
5	78148	38	71.985913968235
5	81079	39	72.758200024478
5	83973	40	74.048974101087
5	86878	41	74.953120001151
5	89876	42	75.945796815604
5	92902	43	77.168265524078
5	95844	44	78.504914620174
5	98870	45	79.848472766612
5	101934	46	80.790672302099
5	104944	47	81.514217799695
5	108024	48	82.662090766143
5	111115	49	83.77607630131
5	114235	50	84.645883057925
5	117360	51	85.631841440575
5	120485	52	86.524763656519
5	123653	53	87.562374008801
5	126886	54	88.575108961017
5	130060	55	89.921186793369
5	133194	56	90.999160383566
5	136352	57	92.169121332085
5	139525	58	93.205147959429
5	142723	59	93.95584044836
5	145943	60	94.953871819462
5	149187	61	95.996332894673
5	152353	62	96.912117348116
5	155512	63	98.035020332707
5	158681	64	98.878343704336
5	161874	65	100.11917979016
5	165128	66	101.30229563705
5	168444	67	102.69269656941
5	171811	68	103.50681289468
5	175137	69	104.43684546615
5	178533	70	105.31553435784
5	181951	71	106.04264294759
5	185360	72	107.0053383539
5	188758	73	108.1931046735
5	192131	74	109.56938967599
5	195620	75	110.28894472144
5	199095	76	111.13022901486
5	202589	77	112.01872972784
5	206074	78	112.97886208295
5	209555	79	113.77581676551
5	213062	80	114.54763418302
5	216570	81	115.77455360298
5	220110	82	117.0637174532
5	223685	83	117.9984078735
5	227188	84	118.94280376978
5	230709	85	119.90993438939
5	234276	86	121.75368517176
5	237839	87	122.61972595164
5	241381	88	123.17269143701
5	244932	89	123.30712300981
5	248444	90	123.4
5	251926	91	123.4
5	255345	92	123.4
5	258899	93	123.4
5	262431	94	123.4
5	265938	95	123.4
5	269438	96	123.4
5	272958	97	123.4
5	276468	98	123.4
5	279976	99	123.4
5	283483	100	123.4
5	287016	101	123.4
5	290521	102	123.4
5	294091	103	123.4
5	297719	104	123.4
5	301330	105	123.4
6	432	1	123.4
6	1436	2	123.4
6	2469	3	123.4
6	3449	4	123.4
6	4502	5	123.4
6	5557	6	123.4
6	6766	7	123.4
6	8336	8	123.4
6	9956	9	123.4
6	11488	10	123.4
6	13074	11	123.4
6	14659	12	123.4
6	16362	13	123.4
6	18193	14	123.4
6	20157	15	123.4
6	22154	16	123.4
6	24250	17	123.4
6	26360	18	123.4
6	28495	19	123.4
6	30782	20	123.4
6	33144	21	123.4
6	35522	22	123.4
6	37838	23	123.4
6	40243	24	123.4
6	42651	25	123.4
6	45133	26	123.4
6	47654	27	123.4
6	50319	28	123.4
6	52934	29	123.4
6	55601	30	123.4
6	58334	31	123.4
6	61108	32	123.4
6	63884	33	123.4
6	66682	34	123.4
6	69518	35	123.4
6	72321	36	123.4
6	75226	37	123.4
6	78148	38	123.4
6	81079	39	123.4
6	83973	40	123.4
6	86878	41	123.4
6	89876	42	123.4
6	92902	43	123.4
6	95844	44	123.4
6	98870	45	123.4
6	101934	46	123.4
6	104944	47	123.4
6	108024	48	123.4
6	111115	49	123.4
6	114235	50	123.4
6	117360	51	123.4
6	120485	52	123.4
6	123653	53	123.4
6	126886	54	123.26398659773
6	130060	55	123.0845844334
6	133194	56	122.40588343163
6	136352	57	121.78890491458
6	139525	58	120.61342112546
6	142723	59	118.93130750594
6	145943	60	117.07197002643
6	149187	61	115.98362678308
6	152353	62	114.16907475488
6	155512	63	113.05409660838
6	158681	64	111.49547074777
6	161874	65	110.07053245762
6	165128	66	109.02610084922
6	168444	67	107.41564935348
6	171811	68	105.70236603539
6	175137	69	103.75834747422
6	178533	70	101.82103633666
6	181951	71	99.966471944191
6	185360	72	98.641597856954
6	188758	73	97.076951326523
6	192131	74	95.946799398353
6	195620	75	94.46392077622
6	199095	76	93.327250894113
6	202589	77	91.972795186052
6	206074	78	90.36902966788
6	209555	79	89.080644161394
6	213062	80	87.873143064743
6	216570	81	85.88939585695
6	220110	82	84.547257987736
6	223685	83	83.138255789597
6	227188	84	81.832649678411
6	230709	85	80.289020934794
6	234276	86	78.329895790853
6	237839	87	77.078501800727
6	241381	88	76.007567952806
6	244932	89	74.10933821504
6	248444	90	72.359636076679
6	251926	91	70.790893923678
6	255345	92	69.51936788992
6	258899	93	67.69517090912
6	262431	94	66.296398665244
6	265938	95	64.666450700676
6	269438	96	63.210372196464
6	272958	97	61.666971323499
6	276468	98	59.819018348772
6	279976	99	57.828795871185
6	283483	100	56.283385739615
6	287016	101	55.220508756302
6	290521	102	53.76992733865
6	294091	103	52.22175869178
6	297719	104	50.406875086669
6	301330	105	49.212296253955
7	432	1	37.83
7	1436	2	37.83
7	2469	3	39.114810635028
7	3449	4	40.151147870971
7	4502	5	42.064018574003
7	5557	6	43.602539211204
7	6766	7	45.128938788474
7	8336	8	46.742449810421
7	9956	9	48.532067248756
7	11488	10	50.057369743632
7	13074	11	51.588718545316
7	14659	12	53.023529679673
7	16362	13	54.470708195511
7	18193	14	55.790652622627
7	20157	15	57.395783330472
7	22154	16	58.74368005611
7	24250	17	60.61986007371
7	26360	18	62.098823470687
7	28495	19	63.234542028205
7	30782	20	65.05493835073
7	33144	21	66.535227158498
7	35522	22	68.320346421953
7	37838	23	69.571092005279
7	40243	24	71.115923188087
7	42651	25	72.687699361164
7	45133	26	73.91711861237
7	47654	27	75.483679636074
7	50319	28	76.995269574383
7	52934	29	78.596244247323
7	55601	30	80.436829783414
7	58334	31	82.204085651245
7	61108	32	83.891332358513
7	63884	33	85.509572558263
7	66682	34	86.670383437462
7	69518	35	88.65108283299
7	72321	36	90.204947325559
7	75226	37	92.051319783945
7	78148	38	93.260479620583
7	81079	39	95.22444579836
7	83973	40	96.551863491693
7	86878	41	98.418424060727
7	89876	42	99.547341490788
7	92902	43	101.48880656848
7	95844	44	102.76246410624
7	98870	45	104.74334120859
7	101934	46	106.44164874071
7	104944	47	108.04610491211
7	108024	48	109.72787140395
7	111115	49	111.5887987096
7	114235	50	112.94909360858
7	117360	51	114.52369187765
7	120485	52	115.70635276327
7	123653	53	117.10613989776
7	126886	54	118.75209381586
7	130060	55	120.00790896622
7	133194	56	121.32352761395
7	136352	57	122.12665705125
7	139525	58	122.83194732473
7	142723	59	123.23838464201
7	145943	60	123.4
7	149187	61	123.4
7	152353	62	123.4
7	155512	63	123.4
7	158681	64	123.4
7	161874	65	123.4
7	165128	66	123.4
7	168444	67	123.4
7	171811	68	123.4
7	175137	69	123.4
7	178533	70	123.4
7	181951	71	123.4
7	185360	72	123.4
7	188758	73	123.4
7	192131	74	123.4
7	195620	75	123.4
7	199095	76	123.4
7	202589	77	123.4
7	206074	78	123.4
7	209555	79	123.4
7	213062	80	123.4
7	216570	81	123.4
7	220110	82	123.4
7	223685	83	123.4
7	227188	84	123.4
7	230709	85	123.4
7	234276	86	123.4
7	237839	87	123.4
7	241381	88	123.4
7	244932	89	123.4
7	248444	90	123.4
7	251926	91	123.4
7	255345	92	123.4
7	258899	93	123.4
7	262431	94	123.4
7	265938	95	123.4
7	269438	96	123.4
7	272958	97	123.4
7	276468	98	123.4
7	279976	99	123.4
7	283483	100	123.4
7	287016	101	123.4
7	290521	102	123.4
7	294091	103	123.4
7	297719	104	123.4
7	301330	105	123.4
8	432	1	319.9
8	1436	2	319.9
8	2469	3	318.44488317738
8	3449	4	317.23660821081
8	4502	5	316.06922805365
8	5557	6	314.18750247741
8	6766	7	312.92442065533
8	8336	8	311.37437064489
8	9956	9	309.69941787245
8	11488	10	308.35574746444
8	13074	11	306.37573513677
8	14659	12	304.46967564276
8	16362	13	303.14749218207
8	18193	14	301.91451588469
8	20157	15	300.63059041821
8	22154	16	299.52251377641
8	24250	17	297.59168076664
8	26360	18	295.81560544935
8	28495	19	294.03804867282
8	30782	20	292.5746278815
8	33144	21	291.52741953973
8	35522	22	289.70232841196
8	37838	23	287.76536670453
8	40243	24	286.26350693298
8	42651	25	284.83271768955
8	45133	26	283.25325715132
8	47654	27	282.10053246804
8	50319	28	280.63670996749
8	52934	29	278.87673024121
8	55601	30	276.91003486756
8	58334	31	275.13119577952
8	61108	32	273.64850429269
8	63884	33	272.59945690106
8	66682	34	270.94823956033
8	69518	35	269.2198923301
8	72321	36	268.112754576
8	75226	37	266.68989482275
8	78148	38	265.51671904055
8	81079	39	264.11465576789
8	83973	40	262.11984538785
8	86878	41	261.10447701518
8	89876	42	259.95262739887
8	92902	43	257.99227785794
8	95844	44	256.55385513939
8	98870	45	254.82843018938
8	101934	46	253.22099897158
8	104944	47	251.30236856905
8	108024	48	250.20247069523
8	111115	49	248.44951591254
8	114235	50	247.04970912179
8	117360	51	245.20693122139
8	120485	52	243.56413864167
8	123653	53	241.9232492988
8	126886	54	240.24854610451
8	130060	55	238.74590293816
8	133194	56	237.52752750864
8	136352	57	237.07510784064
8	139525	58	236.92739447775
8	142723	59	236.83669338098
8	145943	60	236.83384106965
8	149187	61	236.8316395378
8	152353	62	236.83115392883
8	155512	63	236.83104007366
8	158681	64	236.83104007366
8	161874	65	236.83104007366
8	165128	66	236.83104007366
8	168444	67	236.83104007366
8	171811	68	236.83104007366
8	175137	69	236.83104007366
8	178533	70	236.83104007366
8	181951	71	236.83104007366
8	185360	72	236.83104007366
8	188758	73	236.83104007366
8	192131	74	236.83104007366
8	195620	75	236.83104007366
8	199095	76	236.83104007366
8	202589	77	236.83104007366
8	206074	78	236.83104007366
8	209555	79	236.83104007366
8	213062	80	236.83104007366
8	216570	81	236.83104007366
8	220110	82	236.83104007366
8	223685	83	236.83104007366
8	227188	84	236.83104007366
8	230709	85	236.83104007366
8	234276	86	236.83104007366
8	237839	87	236.83104007366
8	241381	88	236.83104007366
8	244932	89	236.83104007366
8	248444	90	236.83104007366
8	251926	91	236.83104007366
8	255345	92	236.83104007366
8	258899	93	236.83104007366
8	262431	94	236.83104007366
8	265938	95	236.83104007366
8	269438	96	236.83104007366
8	272958	97	236.83104007366
8	276468	98	236.83104007366
8	279976	99	235.15136746207
8	283483	100	233.38493191589
8	287016	101	231.53361962618
8	290521	102	230.49639433427
8	294091	103	229.26062287364
8	297719	104	228.13947750385
8	301330	105	228.13639481733
9	432	1	123.4
9	1436	2	123.4
9	2469	3	123.4
9	3449	4	123.4
9	4502	5	123.4
9	5557	6	123.4
9	6766	7	123.4
9	8336	8	123.4
9	9956	9	123.4
9	11488	10	123.4
9	13074	11	123.4
9	14659	12	123.4
9	16362	13	123.4
9	18193	14	123.4
9	20157	15	123.4
9	22154	16	123.4
9	24250	17	123.4
9	26360	18	123.4
9	28495	19	123.4
9	30782	20	123.4
9	33144	21	123.4
9	35522	22	123.4
9	37838	23	123.4
9	40243	24	123.4
9	42651	25	123.4
9	45133	26	123.4
9	47654	27	123.4
9	50319	28	123.4
9	52934	29	123.4
9	55601	30	123.4
9	58334	31	123.4
9	61108	32	123.4
9	63884	33	123.4
9	66682	34	123.4
9	69518	35	123.4
9	72321	36	123.4
9	75226	37	123.4
9	78148	38	123.4
9	81079	39	123.4
9	83973	40	123.4
9	86878	41	123.4
9	89876	42	123.4
9	92902	43	123.4
9	95844	44	123.4
9	98870	45	123.4
9	101934	46	123.4
9	104944	47	123.4
9	108024	48	123.4
9	111115	49	123.4
9	114235	50	123.4
9	117360	51	123.4
9	120485	52	123.4
9	123653	53	123.4
9	126886	54	123.4
9	130060	55	123.4
9	133194	56	123.4
9	136352	57	123.4
9	139525	58	123.4
9	142723	59	123.4
9	145943	60	123.4
9	149187	61	123.4
9	152353	62	123.4
9	155512	63	123.4
9	158681	64	123.4
9	161874	65	123.4
9	165128	66	123.4
9	168444	67	123.4
9	171811	68	123.4
9	175137	69	123.4
9	178533	70	123.4
9	181951	71	123.4
9	185360	72	123.4
9	188758	73	123.4
9	192131	74	123.4
9	195620	75	123.4
9	199095	76	123.4
9	202589	77	123.4
9	206074	78	123.4
9	209555	79	123.4
9	213062	80	123.4
9	216570	81	123.4
9	220110	82	123.4
9	223685	83	123.4
9	227188	84	123.4
9	230709	85	123.4
9	234276	86	123.4
9	237839	87	123.4
9	241381	88	123.4
9	244932	89	123.4
9	248444	90	123.4
9	251926	91	123.4
9	255345	92	123.4
9	258899	93	123.4
9	262431	94	123.4
9	265938	95	123.4
9	269438	96	123.4
9	272958	97	123.4
9	276468	98	123.4
9	279976	99	123.25487243085
9	283483	100	123.09247966957
9	287016	101	122.92228398064
9	290521	102	122.64056788466
9	294091	103	122.27209241871
9	297719	104	121.93779552346
9	301330	105	121.93687634513
10	432	1	207.36347142857
10	1436	2	207.36347142857
10	2469	3	205.73378447215
10	3449	4	203.48318048561
10	4502	5	201.55764772594
10	5557	6	200.16893107888
10	6766	7	198.33288312982
10	8336	8	196.73109511941
10	9956	9	194.61274712151
10	11488	10	192.83651589797
10	13074	11	191.53730367648
10	14659	12	190.02299960099
10	16362	13	188.3859796507
10	18193	14	187.17311339612
10	20157	15	185.60266032801
10	22154	16	184.40857076185
10	24250	17	182.2855183087
10	26360	18	180.36231069964
10	28495	19	178.66636428358
10	30782	20	177.06541467655
10	33144	21	175.71160179744
10	35522	22	173.93220264777
10	37838	23	171.71253203042
10	40243	24	170.50988192588
10	42651	25	168.35214628616
10	45133	26	166.65369003435
10	47654	27	164.66575964929
10	50319	28	162.7048038612
10	52934	29	161.40436111259
10	55601	30	159.18651877989
10	58334	31	156.97045005065
10	61108	32	154.72979593634
10	63884	33	153.55485008293
10	66682	34	152.26463523818
10	69518	35	151.06919401113
10	72321	36	149.13502091711
10	75226	37	147.28887440453
10	78148	38	145.00629065701
10	81079	39	142.82446341066
10	83973	40	140.72538962966
10	86878	41	139.09562815299
10	89876	42	137.38388868992
10	92902	43	135.06760297563
10	95844	44	132.75131726135
10	98870	45	130.87979719756
10	101934	46	129.25122901319
10	104944	47	127.7222966332
10	108024	48	126.94926416711
10	111115	49	126.70179437053
10	114235	50	126.6
10	117360	51	126.6
10	120485	52	126.6
10	123653	53	126.6
10	126886	54	126.6
10	130060	55	126.6
10	133194	56	126.6
10	136352	57	126.6
10	139525	58	126.6
10	142723	59	126.6
10	145943	60	126.6
10	149187	61	126.6
10	152353	62	126.6
10	155512	63	126.6
10	158681	64	126.6
10	161874	65	126.6
10	165128	66	126.6
10	168444	67	126.6
10	171811	68	126.6
10	175137	69	126.6
10	178533	70	126.6
10	181951	71	126.6
10	185360	72	126.6
10	188758	73	126.6
10	192131	74	126.6
10	195620	75	126.6
10	199095	76	126.6
10	202589	77	126.6
10	206074	78	126.6
10	209555	79	126.6
10	213062	80	126.6
10	216570	81	126.6
10	220110	82	126.6
10	223685	83	126.6
10	227188	84	126.6
10	230709	85	126.6
10	234276	86	126.6
10	237839	87	126.6
10	241381	88	126.6
10	244932	89	126.6
10	248444	90	126.6
10	251926	91	126.6
10	255345	92	126.6
10	258899	93	126.6
10	262431	94	126.6
10	265938	95	126.6
10	269438	96	126.6
10	272958	97	126.6
10	276468	98	126.6
10	279976	99	126.6
10	283483	100	126.6
10	287016	101	126.6
10	290521	102	126.6
10	294091	103	126.6
10	297719	104	126.6
10	301330	105	126.65698501832
11	432	1	123.4
11	1436	2	123.4
11	2469	3	123.4
11	3449	4	123.4
11	4502	5	123.4
11	5557	6	123.4
11	6766	7	123.4
11	8336	8	123.4
11	9956	9	123.4
11	11488	10	123.4
11	13074	11	123.4
11	14659	12	123.4
11	16362	13	123.4
11	18193	14	123.4
11	20157	15	123.4
11	22154	16	123.4
11	24250	17	123.4
11	26360	18	123.4
11	28495	19	123.4
11	30782	20	123.4
11	33144	21	123.4
11	35522	22	123.4
11	37838	23	123.4
11	40243	24	123.4
11	42651	25	123.4
11	45133	26	123.4
11	47654	27	123.4
11	50319	28	123.4
11	52934	29	123.4
11	55601	30	123.4
11	58334	31	123.4
11	61108	32	123.4
11	63884	33	123.4
11	66682	34	123.4
11	69518	35	123.4
11	72321	36	123.4
11	75226	37	123.4
11	78148	38	123.4
11	81079	39	123.4
11	83973	40	123.4
11	86878	41	123.4
11	89876	42	123.4
11	92902	43	123.4
11	95844	44	123.4
11	98870	45	123.21139959965
11	101934	46	122.75073740791
11	104944	47	121.53716105533
11	108024	48	120.24484916978
11	111115	49	118.51256059369
11	114235	50	117.04658966467
11	117360	51	115.80169584348
11	120485	52	114.42316887343
11	123653	53	113.1507158694
11	126886	54	111.61405989017
11	130060	55	110.13138597414
11	133194	56	108.47908396252
11	136352	57	106.59058002082
11	139525	58	105.14975380224
11	142723	59	103.19372923465
11	145943	60	101.68414913655
11	149187	61	100.53739511619
11	152353	62	99.396397757363
11	155512	63	97.648024512939
11	158681	64	96.133055049945
11	161874	65	94.135119681498
11	165128	66	92.498601442454
11	168444	67	90.650884547755
11	171811	68	89.453240301944
11	175137	69	88.080401011761
11	178533	70	86.704898485933
11	181951	71	84.823815427972
11	185360	72	83.617382797431
11	188758	73	81.769747276576
11	192131	74	80.320085001197
11	195620	75	78.823534281245
11	199095	76	76.928906789767
11	202589	77	74.959099562857
11	206074	78	72.981431126613
11	209555	79	71.055005071703
11	213062	80	69.339890595777
11	216570	81	68.017785561522
11	220110	82	66.549279842544
11	223685	83	65.100273807086
11	227188	84	63.872330625327
11	230709	85	62.542760732835
11	234276	86	61.133687460348
11	237839	87	59.874034658559
11	241381	88	58.291367800459
11	244932	89	56.334130944004
11	248444	90	54.862446075091
11	251926	91	53.649897677843
11	255345	92	52.415168031603
11	258899	93	50.619312307118
11	262431	94	49.144535618387
11	265938	95	48.028859843519
11	269438	96	46.452561132396
11	272958	97	45.01368206392
11	276468	98	43.026998180449
11	279976	99	41.368403475517
11	283483	100	39.480418174081
11	287016	101	38.248195768818
11	290521	102	37.067952779839
11	294091	103	35.19771540679
11	297719	104	34.093007802051
11	301330	105	32.220486894983
12	432	1	126.6
12	1436	2	126.6
12	2469	3	126.6
12	3449	4	126.6
12	4502	5	126.6
12	5557	6	126.6
12	6766	7	126.6
12	8336	8	126.6
12	9956	9	126.6
12	11488	10	126.6
12	13074	11	126.6
12	14659	12	126.6
12	16362	13	126.6
12	18193	14	126.6
12	20157	15	126.6
12	22154	16	126.6
12	24250	17	126.6
12	26360	18	126.6
12	28495	19	126.6
12	30782	20	126.6
12	33144	21	126.6
12	35522	22	126.6
12	37838	23	126.6
12	40243	24	126.6
12	42651	25	126.6
12	45133	26	126.6
12	47654	27	126.6
12	50319	28	126.6
12	52934	29	126.6
12	55601	30	126.6
12	58334	31	126.6
12	61108	32	126.6
12	63884	33	126.6
12	66682	34	126.6
12	69518	35	126.6
12	72321	36	126.6
12	75226	37	126.6
12	78148	38	126.6
12	81079	39	126.6
12	83973	40	126.6
12	86878	41	126.6
12	89876	42	126.6
12	92902	43	126.6
12	95844	44	126.6
12	98870	45	126.6
12	101934	46	126.6
12	104944	47	126.6
12	108024	48	126.6
12	111115	49	126.6
12	114235	50	126.6
12	117360	51	126.6
12	120485	52	126.6
12	123653	53	126.6
12	126886	54	126.6
12	130060	55	126.62288202102
12	133194	56	126.7655446655
12	136352	57	127.88690119934
12	139525	58	128.85273776152
12	142723	59	130.15446772239
12	145943	60	131.03610287545
12	149187	61	132.35010025163
12	152353	62	133.46834712149
12	155512	63	134.53019861053
12	158681	64	135.8288216677
12	161874	65	137.10090060942
12	165128	66	138.38685344345
12	168444	67	139.74253049873
12	171811	68	140.98171197984
12	175137	69	141.84890807182
12	178533	70	143.11920154522
12	181951	71	144.27619414687
12	185360	72	145.38640795417
12	188758	73	146.13116388958
12	192131	74	147.26526070403
12	195620	75	148.39636928884
12	199095	76	149.40221379665
12	202589	77	150.20390561548
12	206074	78	151.07802484591
12	209555	79	151.7852693063
12	213062	80	153.0253102972
12	216570	81	154.36790674532
12	220110	82	155.64084622965
12	223685	83	156.81080113804
12	227188	84	157.60209340003
12	230709	85	158.91848121732
12	234276	86	159.96895322544
12	237839	87	161.21671609065
12	241381	88	162.33330225408
12	244932	89	163.2162520672
12	248444	90	164.31119691569
12	251926	91	165.65982020982
12	255345	92	166.53139582166
12	258899	93	167.28220729297
12	262431	94	168.35596332076
12	265938	95	169.64484313337
12	269438	96	170.61936673444
12	272958	97	171.57252805284
12	276468	98	172.29164829589
12	279976	99	173.34358539611
12	283483	100	174.53057694116
12	287016	101	175.69800513695
12	290521	102	176.48462915587
12	294091	103	177.69725244692
12	297719	104	178.7643594758
12	301330	105	180.08928200586
13	432	1	112.7
13	1436	2	112.7
13	2469	3	111.13758720998
13	3449	4	110.0631838432
13	4502	5	109.0418021861
13	5557	6	107.80041780653
13	6766	7	106.41805330738
13	8336	8	104.47827877388
13	9956	9	102.63958828505
13	11488	10	101.26243437831
13	13074	11	99.580417551612
13	14659	12	98.296744749462
13	16362	13	96.888786675921
13	18193	14	95.477251759311
13	20157	15	94.047216670867
13	22154	16	92.888356800703
13	24250	17	91.119099142309
13	26360	18	89.696327727567
13	28495	19	87.754356890032
13	30782	20	85.983576213056
13	33144	21	84.501776924403
13	35522	22	83.223857585154
13	37838	23	81.736251050653
13	40243	24	80.721283331094
13	42651	25	78.953517472651
13	45133	26	77.441452044109
13	47654	27	76.366615474038
13	50319	28	74.910421427619
13	52934	29	73.862295902381
13	55601	30	71.961910828529
13	58334	31	70.271978472406
13	61108	32	68.669511970645
13	63884	33	66.993916831957
13	66682	34	65.411403203662
13	69518	35	64.037039821316
13	72321	36	62.044923923956
13	75226	37	60.959714587592
13	78148	38	59.501844043657
13	81079	39	57.561788342241
13	83973	40	56.076301084645
13	86878	41	54.223986662738
13	89876	42	52.314219644805
13	92902	43	50.745979770133
13	95844	44	49.28089662483
13	98870	45	47.737306183483
13	101934	46	45.998210683744
13	104944	47	44.265417716745
13	108024	48	42.986847825162
13	111115	49	40.989524893742
13	114235	50	39.600852315361
13	117360	51	37.650201261556
13	120485	52	35.790517285047
13	123653	53	34.768689458072
13	126886	54	33.5795280708
13	130060	55	32.525407812041
13	133194	56	31.249835931994
13	136352	57	30.60174087897
13	139525	58	31.208992330622
13	142723	59	32.414467722387
13	145943	60	33.296102875446
13	149187	61	34.610100251634
13	152353	62	35.728347121492
13	155512	63	36.790198610532
13	158681	64	38.088821667699
13	161874	65	39.360900609415
13	165128	66	40.646853443448
13	168444	67	42.002530498734
13	171811	68	43.241711979838
13	175137	69	44.108908071821
13	178533	70	45.379201545223
13	181951	71	46.536194146871
13	185360	72	47.646407954169
13	188758	73	48.391163889581
13	192131	74	49.525260704034
13	195620	75	50.656369288836
13	199095	76	51.662213796648
13	202589	77	52.463905615478
13	206074	78	53.338024845906
13	209555	79	54.045269306296
13	213062	80	55.285310297197
13	216570	81	56.627906745325
13	220110	82	57.900846229651
13	223685	83	59.070801138036
13	227188	84	59.862093400029
13	230709	85	61.178481217323
13	234276	86	62.228953225442
13	237839	87	63.476716090654
13	241381	88	64.593302254077
13	244932	89	65.476252067199
13	248444	90	66.571196915692
13	251926	91	67.919820209818
13	255345	92	68.791395821662
13	258899	93	69.542207292969
13	262431	94	70.61596332076
13	265938	95	71.904843133374
13	269438	96	72.879366734437
13	272958	97	73.832528052836
13	276468	98	74.551648295893
13	279976	99	75.603585396113
13	283483	100	76.790576941163
13	287016	101	77.958005136952
13	290521	102	78.744629155867
13	294091	103	79.957252446917
13	297719	104	81.024359475799
13	301330	105	82.349282005863
14	432	1	322.52382420971
14	1436	2	322.52382420971
14	2469	3	321.70872364552
14	3449	4	320.86881611972
14	4502	5	320.13142752452
14	5557	6	319.22679545418
14	6766	7	318.13514971256
14	8336	8	316.97516875417
14	9956	9	315.58815253039
14	11488	10	314.27167418266
14	13074	11	313.16981842791
14	14659	12	312.16287974689
14	16362	13	310.93961398594
14	18193	14	309.8166226614
14	20157	15	308.606072584
14	22154	16	307.7619403634
14	24250	17	306.84090098577
14	26360	18	305.67091025671
14	28495	19	304.41139988297
14	30782	20	303.63124355322
14	33144	21	302.70317531496
14	35522	22	301.78711775554
14	37838	23	300.76582701959
14	40243	24	299.94881613012
14	42651	25	298.77759068954
14	45133	26	297.75751583537
14	47654	27	296.82511372379
14	50319	28	295.892735214
14	52934	29	294.59206455404
14	55601	30	293.85596821929
14	58334	31	292.62081142768
14	61108	32	291.5064953213
14	63884	33	290.25735863387
14	66682	34	288.86058065554
14	69518	35	287.76843557202
14	72321	36	286.83303203795
14	75226	37	285.9104662111
14	78148	38	284.87748651189
14	81079	39	283.63161890413
14	83973	40	282.9034696491
14	86878	41	281.80616185392
14	89876	42	281.05369585538
14	92902	43	279.98153486479
14	95844	44	278.84994519944
14	98870	45	277.4419031983
14	101934	46	276.64880791171
14	104944	47	275.85820442736
14	108024	48	274.72990027864
14	111115	49	273.34156572412
14	114235	50	272.3898760831
14	117360	51	271.21761263748
14	120485	52	270.49136542142
14	123653	53	269.57843554251
14	126886	54	268.51561404311
14	130060	55	267.16321517596
14	133194	56	266.16239007916
14	136352	57	265.05987409097
14	139525	58	263.97598450337
14	142723	59	262.59058386819
14	145943	60	261.73083928039
14	149187	61	260.93879345567
14	152353	62	259.58946719437
14	155512	63	258.45664619528
14	158681	64	257.69955551885
14	161874	65	256.96587203445
14	165128	66	256.03514383403
14	168444	67	254.69419688747
14	171811	68	253.53984963909
14	175137	69	252.51375068763
14	178533	70	251.41531430336
14	181951	71	250.17359045601
14	185360	72	248.98215388688
14	188758	73	247.90029669546
14	192131	74	246.87447209746
14	195620	75	245.57515333477
14	199095	76	244.69534400347
14	202589	77	243.30710167388
14	206074	78	242.57577932004
14	209555	79	241.20407345856
14	213062	80	240.11589238735
14	216570	81	239.08208365831
14	220110	82	238.17197843958
14	223685	83	236.91882598154
14	227188	84	235.96400714687
14	230709	85	235.04604856969
14	234276	86	233.54173009402
14	237839	87	231.94141057545
14	241381	88	230.30040057445
14	244932	89	228.49799693109
14	248444	90	227.20209656576
14	251926	91	226.14629187316
14	255345	92	224.54101177902
14	258899	93	223.53516663813
14	262431	94	221.65541397255
14	265938	95	219.9243993112
14	269438	96	218.38279541336
14	272958	97	216.64438662684
14	276468	98	215.44694140604
14	279976	99	213.63037197132
14	283483	100	211.55297847759
14	287016	101	209.76275867098
14	290521	102	208.44556348839
14	294091	103	206.20832476525
14	297719	104	205.03072827478
14	301330	105	202.99832195341
15	432	1	220.26382420971
15	1436	2	220.26382420971
15	2469	3	219.44872364552
15	3449	4	218.60881611972
15	4502	5	217.87142752452
15	5557	6	216.96679545418
15	6766	7	215.87514971256
15	8336	8	214.71516875417
15	9956	9	213.32815253039
15	11488	10	212.01167418266
15	13074	11	210.90981842791
15	14659	12	209.90287974689
15	16362	13	208.67961398594
15	18193	14	207.5566226614
15	20157	15	206.346072584
15	22154	16	205.5019403634
15	24250	17	204.58090098577
15	26360	18	203.41091025671
15	28495	19	202.15139988297
15	30782	20	201.37124355322
15	33144	21	200.44317531496
15	35522	22	199.52711775554
15	37838	23	198.50582701959
15	40243	24	197.68881613012
15	42651	25	196.51759068954
15	45133	26	195.49751583537
15	47654	27	194.56511372379
15	50319	28	193.632735214
15	52934	29	192.33206455404
15	55601	30	191.59596821929
15	58334	31	190.36081142768
15	61108	32	189.2464953213
15	63884	33	187.99735863387
15	66682	34	186.60058065554
15	69518	35	185.50843557202
15	72321	36	184.57303203795
15	75226	37	183.6504662111
15	78148	38	182.61748651189
15	81079	39	181.37161890413
15	83973	40	180.6434696491
15	86878	41	179.54616185392
15	89876	42	178.79369585538
15	92902	43	177.72153486479
15	95844	44	176.58994519944
15	98870	45	175.1819031983
15	101934	46	174.38880791171
15	104944	47	173.59820442736
15	108024	48	172.46990027864
15	111115	49	171.08156572412
15	114235	50	170.1298760831
15	117360	51	168.95761263748
15	120485	52	168.23136542142
15	123653	53	167.31843554251
15	126886	54	166.25561404311
15	130060	55	164.90321517596
15	133194	56	163.90239007916
15	136352	57	162.79987409097
15	139525	58	161.71598450337
15	142723	59	160.33058386819
15	145943	60	159.47083928039
15	149187	61	158.67879345567
15	152353	62	157.32946719437
15	155512	63	156.19664619528
15	158681	64	155.43955551885
15	161874	65	154.70587203445
15	165128	66	153.77514383403
15	168444	67	152.43419688747
15	171811	68	151.27984963909
15	175137	69	150.25375068763
15	178533	70	149.15531430336
15	181951	71	147.91359045601
15	185360	72	146.72215388688
15	188758	73	145.64029669546
15	192131	74	144.61447209746
15	195620	75	143.31515333477
15	199095	76	142.43534400347
15	202589	77	141.04710167388
15	206074	78	140.31577932004
15	209555	79	138.94407345856
15	213062	80	137.85589238735
15	216570	81	136.82208365831
15	220110	82	135.91197843958
15	223685	83	134.65882598154
15	227188	84	133.70400714687
15	230709	85	132.78604856969
15	234276	86	131.54585527357
15	237839	87	130.42680543907
15	241381	88	129.28579825542
15	244932	89	128.42100862855
15	248444	90	127.79784391771
15	251926	91	127.28998849595
15	255345	92	126.51782845067
15	258899	93	126.14640310324
15	262431	94	125.48652213529
15	265938	95	124.87885515273
15	269438	96	124.33768019342
15	272958	97	123.99669031816
15	276468	98	123.78494695595
15	279976	99	123.463724312
15	283483	100	123.4
15	287016	101	123.4
15	290521	102	123.4
15	294091	103	123.4
15	297719	104	123.4
15	301330	105	123.4
16	432	1	223.4
16	1436	2	223.4
16	2469	3	223.4
16	3449	4	223.4
16	4502	5	223.4
16	5557	6	223.4
16	6766	7	223.4
16	8336	8	223.4
16	9956	9	223.4
16	11488	10	223.4
16	13074	11	223.4
16	14659	12	223.4
16	16362	13	223.4
16	18193	14	223.4
16	20157	15	223.4
16	22154	16	223.4
16	24250	17	223.4
16	26360	18	223.4
16	28495	19	223.4
16	30782	20	223.4
16	33144	21	223.4
16	35522	22	223.4
16	37838	23	223.4
16	40243	24	223.4
16	42651	25	223.4
16	45133	26	223.4
16	47654	27	223.4
16	50319	28	223.4
16	52934	29	223.4
16	55601	30	223.4
16	58334	31	223.30505601774
16	61108	32	223.07238200543
16	63884	33	222.81481781424
16	66682	34	221.95623532829
16	69518	35	221.37097131783
16	72321	36	220.4682249502
16	75226	37	219.45001075024
16	78148	38	218.44571700502
16	81079	39	216.76201265433
16	83973	40	215.36720172274
16	86878	41	213.52179615399
16	89876	42	211.52782836322
16	92902	43	210.24991183
16	95844	44	208.71165988704
16	98870	45	206.80677570574
16	101934	46	205.1022605318
16	104944	47	202.92191796929
16	108024	48	201.73893010749
16	111115	49	199.92969584298
16	114235	50	197.62205950661
16	117360	51	195.50039103501
16	120485	52	193.95844640188
16	123653	53	191.76521905467
16	126886	54	190.24174320259
16	130060	55	188.98926549601
16	133194	56	187.51329758762
16	136352	57	185.58612186752
16	139525	58	183.34995955617
16	142723	59	181.92686310299
16	145943	60	180.28498682858
16	149187	61	178.04756265449
16	152353	62	176.29153186528
16	155512	63	174.19054212633
16	158681	64	171.99036225871
16	161874	65	169.97843643702
16	165128	66	168.7598638699
16	168444	67	167.40113677202
16	171811	68	166.1788625828
16	175137	69	164.32493342174
16	178533	70	163.14710113805
16	181951	71	161.02690370352
16	185360	72	159.24321917154
16	188758	73	157.045430947
16	192131	74	155.51379670132
16	195620	75	154.20061871302
16	199095	76	152.07997356995
16	202589	77	150.0856399196
16	206074	78	147.8864511251
16	209555	79	146.19228516029
16	213062	80	144.33533061906
16	216570	81	142.57895949047
16	220110	82	140.775584013
16	223685	83	139.5020524262
16	227188	84	138.07977293429
16	230709	85	136.594523631
16	234276	86	134.34744612032
16	237839	87	133.06849642116
16	241381	88	132.66094783208
16	244932	89	132.336273631
16	248444	90	132.3187608097
16	251926	91	130.75876668119
16	255345	92	129.52863819269
16	258899	93	128.56728062394
16	262431	94	128.24458236625
16	265938	95	128.20165114535
16	269438	96	128.2010236366
16	272958	97	128.2010236366
16	276468	98	128.2010236366
16	279976	99	127.26829858348
16	283483	100	125.47790131825
16	287016	101	124.15017414876
16	290521	102	123.12165418142
16	294091	103	121.65879459973
16	297719	104	119.78972939719
16	301330	105	117.94121539979
17	432	1	34.00354
17	1436	2	34.00354
17	2469	3	36.470221545935
17	3449	4	39.324093884196
17	4502	5	42.819200322388
17	5557	6	44.972054115692
17	6766	7	48.173902994635
17	8336	8	50.11125565326
17	9956	9	53.085198444779
17	11488	10	56.019279796828
17	13074	11	58.482285519327
17	14659	12	61.114551715649
17	16362	13	63.99249250343
17	18193	14	66.288431786969
17	20157	15	69.785348110582
17	22154	16	72.667254382368
17	24250	17	75.193363928339
17	26360	18	78.691465553003
17	28495	19	81.243805956355
17	30782	20	83.57520595004
17	33144	21	85.697134075752
17	35522	22	89.020443334604
17	37838	23	92.035486083891
17	40243	24	94.15537384093
17	42651	25	97.290164566767
17	45133	26	99.625061731857
17	47654	27	103.05550214394
17	50319	28	105.2028500217
17	52934	29	108.15509243174
17	55601	30	111.68589243174
17	58334	31	113.93762197051
17	61108	32	115.57372653323
17	63884	33	117.38485251257
17	66682	34	119.05770211017
17	69518	35	120.03416890657
17	72321	36	121.11081154404
17	75226	37	121.72109765758
17	78148	38	122.3230402809
17	81079	39	122.90339323426
17	83973	40	123.10175235094
17	86878	41	123.3641915176
17	89876	42	123.4
17	92902	43	123.4
17	95844	44	123.4
17	98870	45	123.4
17	101934	46	123.4
17	104944	47	123.4
17	108024	48	123.4
17	111115	49	123.4
17	114235	50	123.4
17	117360	51	123.4
17	120485	52	123.4
17	123653	53	123.4
17	126886	54	123.4
17	130060	55	123.4
17	133194	56	123.4
17	136352	57	123.4
17	139525	58	123.4
17	142723	59	123.4
17	145943	60	123.4
17	149187	61	123.4
17	152353	62	123.4
17	155512	63	123.4
17	158681	64	123.4
17	161874	65	123.4
17	165128	66	123.4
17	168444	67	123.4
17	171811	68	123.4
17	175137	69	123.4
17	178533	70	123.4
17	181951	71	123.4
17	185360	72	123.4
17	188758	73	123.4
17	192131	74	123.4
17	195620	75	123.4
17	199095	76	123.4
17	202589	77	123.4
17	206074	78	123.4
17	209555	79	123.4
17	213062	80	123.4
17	216570	81	123.4
17	220110	82	123.4
17	223685	83	123.4
17	227188	84	123.4
17	230709	85	123.4
17	234276	86	123.4
17	237839	87	123.4
17	241381	88	123.4
17	244932	89	123.4
17	248444	90	123.4
17	251926	91	123.4
17	255345	92	123.4
17	258899	93	123.4
17	262431	94	123.4
17	265938	95	123.4
17	269438	96	123.4
17	272958	97	123.4
17	276468	98	123.4
17	279976	99	123.4
17	283483	100	123.4
17	287016	101	123.4
17	290521	102	123.4
17	294091	103	123.4
17	297719	104	123.4
17	301330	105	123.4
18	432	1	126.6
18	1436	2	126.6
18	2469	3	126.6
18	3449	4	126.6
18	4502	5	126.6
18	5557	6	126.6
18	6766	7	126.6
18	8336	8	126.6
18	9956	9	126.6
18	11488	10	126.6
18	13074	11	126.6
18	14659	12	126.6
18	16362	13	126.6
18	18193	14	126.6
18	20157	15	126.6
18	22154	16	126.6
18	24250	17	126.6
18	26360	18	126.6
18	28495	19	126.6
18	30782	20	126.6
18	33144	21	126.6
18	35522	22	126.6
18	37838	23	126.6
18	40243	24	126.6
18	42651	25	126.6
18	45133	26	126.6
18	47654	27	126.6
18	50319	28	126.6
18	52934	29	126.6
18	55601	30	126.6
18	58334	31	126.6
18	61108	32	126.72555098543
18	63884	33	126.93715984906
18	66682	34	127.73545574836
18	69518	35	129.12977156752
18	72321	36	130.10118742098
18	75226	37	131.40308373659
18	78148	38	133.25159344732
18	81079	39	135.06506497841
18	83973	40	136.34984750234
18	86878	41	138.57109862461
18	89876	42	140.77474568205
18	92902	43	143.06558278702
18	95844	44	145.38046996022
18	98870	45	146.6718549572
18	101934	46	148.34991229255
18	104944	47	149.58146159137
18	108024	48	151.03309604598
18	111115	49	152.64177210025
18	114235	50	154.58511573262
18	117360	51	155.84185929231
18	120485	52	157.5981619376
18	123653	53	159.5690148431
18	126886	54	161.52455519053
18	130060	55	162.96370503513
18	133194	56	164.33740128064
18	136352	57	166.07969196195
18	139525	58	168.38476301096
18	142723	59	170.27688547904
18	145943	60	171.49462601867
18	149187	61	173.7828004693
18	152353	62	176.00262332657
18	155512	63	177.29536619262
18	158681	64	178.4892171949
18	161874	65	180.10676869156
18	165128	66	182.01782291229
18	168444	67	183.26461518678
18	171811	68	184.63568173713
18	175137	69	185.90847157457
18	178533	70	187.02098949597
18	181951	71	187.05760145115
18	185360	72	187.08672252059
18	188758	73	187.08967284899
18	192131	74	187.09054980387
18	195620	75	187.09106020907
18	199095	76	187.09106020907
18	202589	77	187.09106020907
18	206074	78	187.09121232105
18	209555	79	187.09121232105
18	213062	80	187.09121232105
18	216570	81	187.09121232105
18	220110	82	187.09121232105
18	223685	83	187.09121232105
18	227188	84	187.09121232105
18	230709	85	187.09121232105
18	234276	86	187.09121232105
18	237839	87	187.09121232105
18	241381	88	187.09121232105
18	244932	89	187.09121232105
18	248444	90	187.09121232105
18	251926	91	187.09121232105
18	255345	92	187.09121232105
18	258899	93	187.09121232105
18	262431	94	187.09121232105
18	265938	95	187.09121232105
18	269438	96	187.09121232105
18	272958	97	187.09121232105
18	276468	98	187.09121232105
18	279976	99	187.09121232105
18	283483	100	187.09121232105
18	287016	101	187.09121232105
18	290521	102	187.09121232105
18	294091	103	187.09121232105
18	297719	104	188.61156847242
18	301330	105	190.36395404503
19	432	1	209.0688
19	1436	2	209.0688
19	2469	3	206.58436871594
19	3449	4	204.68708409495
19	4502	5	201.38469782747
19	5557	6	199.32885728875
19	6766	7	196.08617111096
19	8336	8	193.71007898781
19	9956	9	191.40425472294
19	11488	10	188.41388994439
19	13074	11	186.65385978259
19	14659	12	183.33968030434
19	16362	13	180.22930391859
19	18193	14	177.18721967027
19	20157	15	174.67606877315
19	22154	16	172.23531361111
19	24250	17	169.08950150959
19	26360	18	166.91524535127
19	28495	19	163.94879880948
19	30782	20	161.71693885706
19	33144	21	159.39852209175
19	35522	22	156.70158360813
19	37838	23	154.5592957333
19	40243	24	152.63587270833
19	42651	25	150.30664965656
19	45133	26	148.51396424561
19	47654	27	146.25974188922
19	50319	28	142.96749132126
19	52934	29	139.6855389482
19	55601	30	136.53140539626
19	58334	31	133.26495661902
19	61108	32	131.32114310196
19	63884	33	129.83988105658
19	66682	34	128.44090708607
19	69518	35	127.32213705949
19	72321	36	126.89983036843
19	75226	37	126.71384518049
19	78148	38	126.6
19	81079	39	126.6
19	83973	40	126.6
19	86878	41	126.6
19	89876	42	126.6
19	92902	43	126.6
19	95844	44	126.6
19	98870	45	126.6
19	101934	46	126.6
19	104944	47	126.6
19	108024	48	126.6
19	111115	49	126.6
19	114235	50	126.6
19	117360	51	126.6
19	120485	52	126.6
[...]
200	86878	41	0.058496328769252
200	89876	42	0.083656740840524
200	92902	43	0.82717459672131
200	95844	44	-0.055360605474561
200	98870	45	-0.010308956261724
200	101934	46	-0.074479757342488
200	104944	47	-0.77492713509127
200	108024	48	0.64082808373496
200	111115	49	-0.047737546265125
200	114235	50	-0.45095713506453
200	117360	51	0.28725502523594
200	120485	52	-0.4035063839731
200	123653	53	0.43273428056661
200	126886	54	0.42953318892978
200	130060	55	-0.38323860724787
200	133194	56	0.12528436526306
200	136352	57	-0.98744594420016
200	139525	58	1.2046010783167
200	142723	59	-0.39178226236254
200	145943	60	0.22415530821308
200	149187	61	-0.45982849171824
200	152353	62	-0.0053462389160728
200	155512	63	0.37416306976229
200	158681	64	-0.62845748476684
200	161874	65	0.1978183274623
200	165128	66	0.19137050095014
200	168444	67	-0.18382509076037
200	171811	68	0.48079506633803
200	175137	69	0.054044057382271
200	178533	70	-0.32471731118858
200	181951	71	0.21018983097747
200	185360	72	0.30804402381182
200	188758	73	-0.8379513200393
200	192131	74	0.58227355057359
200	195620	75	-0.15605132217283
200	199095	76	-0.68881230926412
200	202589	77	0.41662395726248
200	206074	78	-0.10159372574626
200	209555	79	-0.0044651935327042
200	213062	80	-0.84296802080133
200	216570	81	-0.046498235083791
200	220110	82	-0.2422422025918
200	223685	83	-0.0065298378751612
200	227188	84	-0.0063188649861105
200	230709	85	-0.012999863581071
200	234276	86	-0.0011468064210199
200	237839	87	-0.00026674063243363
200	241381	88	0
200	244932	89	0
200	248444	90	0
200	251926	91	0
200	255345	92	0
200	258899	93	0
200	262431	94	0
200	265938	95	0
200	269438	96	0
200	272958	97	0
200	276468	98	0
200	279976	99	0
200	283483	100	0.36067436391478
200	287016	101	0.77749709233007
200	290521	102	0.057021701530612
200	294091	103	-0.31331108412433
200	297719	104	0.5362289826711
200	301330	105	0.26487127980627
201	52934	29	1.2327400774689
201	55601	30	1.4744104706659
201	58334	31	0.973
201	61108	32	1.3856718186718
201	63884	33	0.973
201	66682	34	1.1507356790309
201	69518	35	1.2548236694938
201	72321	36	1.4822325037241
201	75226	37	0.973
201	78148	38	0.973
201	81079	39	1.3871989317857
201	83973	40	0.973
201	86878	41	1.1761389268928
201	89876	42	1.1883120137402
201	92902	43	1.5984691075869
201	95844	44	1.1774674359324
201	98870	45	1.19777396254
201	101934	46	1.1659944247644
201	104944	47	0.973
201	108024	48	1.4541547797537
201	111115	49	1.1709555548233
201	114235	50	0.973
201	117360	51	1.2846678075779
201	120485	52	0.973
201	123653	53	1.3411865717552
201	126886	54	1.4055612020308
201	130060	55	0.973
201	133194	56	1.2426157990238
201	136352	57	0.973
201	139525	58	1.7546654502376
201	142723	59	0.973
201	145943	60	1.2878747793128
201	149187	61	0.973
201	152353	62	1.1697950449452
201	155512	63	1.3379180977393
201	158681	64	0.973
201	161874	65	1.2265132373056
201	165128	66	1.2427770300109
201	168444	67	0.973
201	171811	68	1.3896722208623
201	175137	69	1.218045488366
201	178533	70	0.973
201	181951	71	1.2726864743183
201	185360	72	1.3493881797543
201	188758	73	0.973
201	192131	74	1.4297447420168
201	195620	75	0.973
201	199095	76	0.973
201	202589	77	1.298229060724
201	206074	78	1.1377839566453
201	209555	79	1.1648053689431
201	213062	80	0.973
201	216570	81	1.1199826110195
201	220110	82	0.973
201	223685	83	1.1109674996051
201	227188	84	1.1106733537942
201	230709	85	1.1100637609137
201	234276	86	1.1100127938462
201	237839	87	0.973
201	241381	88	0.973
201	244932	89	0.973
201	248444	90	0.973
201	251926	91	0.973
201	255345	92	0.973
201	258899	93	0.973
201	262431	94	0.973
201	265938	95	0.973
201	269438	96	0.973
201	272958	97	0.973
201	276468	98	0.973
201	279976	99	0.973
201	283483	100	1.158753990836
201	287016	101	1.3783085213704
201	290521	102	1.1842384573615
201	294091	103	0.973
201	297719	104	1.3619373025429
201	301330	105	1.2990588895948
202	55601	30	0.26607548066574
202	58334	31	1.0992148374656
202	61108	32	1.5709647999476
202	63884	33	0.92627360676458
202	66682	34	0.89102136414756
202	69518	35	1.2337559305256
202	72321	36	1.5720580216247
202	75226	37	1.4256404831302
202	78148	38	1.1308860830309
202	81079	39	1.6355607473688
202	83973	40	0.7712447716148
202	86878	41	1.78846609639
202	89876	42	0.89819371034484
202	92902	43	1.2919028925961
202	95844	44	1.6417138615845
202	98870	45	1.0126344859108
202	101934	46	0.99017861860072
202	104944	47	1.3243108538445
202	108024	48	1.753443061607
202	111115	49	1.6780307407538
202	114235	50	1.0459087791282
202	117360	51	1.3158742715605
202	120485	52	1.7959279413335
202	123653	53	1.492926481089
202	126886	54	1.378174930775
202	130060	55	1.0644840101837
202	133194	56	1.4778241328895
202	136352	57	1.6958264431451
202	139525	58	1.298941272691
202	142723	59	1.2558987727389
202	145943	60	1.5472695033532
202	149187	61	1.4735874591861
202	152353	62	1.0326622028369
202	155512	63	1.0148913224693
202	158681	64	1.9251048415899
202	161874	65	1.8337104308885
202	165128	66	1.234167519724
202	168444	67	1.1729489716236
202	171811	68	1.1989251223858
202	175137	69	1.9624656466767
202	178533	70	1.0515568929259
202	181951	71	1.964257320622
202	185360	72	1.1548459148034
202	188758	73	1.7263224546332
202	192131	74	1.7786702441517
202	195620	75	1.1517257014341
202	199095	76	1.3376200751342
202	202589	77	0.76942224682781
202	206074	78	1.6699995602151
202	209555	79	0.71864301287714
202	213062	80	1.3317140192286
202	216570	81	1.6405468452722
202	220110	82	0.9886447099787
202	223685	83	1.9261737221386
202	227188	84	1.403636073693
202	230709	85	0.96316502351528
202	234276	86	1.7303993063979
202	237839	87	1.0996276230028
202	241381	88	1.0464367747772
202	244932	89	1.2368597732857
202	248444	90	1.9505433382001
202	251926	91	1.5052352852654
202	255345	92	1.2024736390449
202	258899	93	1.0235973978415
202	262431	94	1.7266512641218
202	265938	95	1.3670611765701
202	269438	96	1.7063831803389
202	272958	97	1.6593953568954
202	276468	98	1.1904336269945
202	279976	99	1.5192585962359
202	283483	100	1.9164694105275
202	287016	101	1.5419790362939
202	290521	102	1.2267379444093
202	294091	103	1.3909060994629
202	297719	104	1.5515178821515
202	301330	105	1.2680697280448
203	58334	31	0.83313935679982
203	61108	32	0.47174996248205
203	63884	33	-0.64469119318303
203	66682	34	-0.035252242617026
203	69518	35	0.34273456637806
203	72321	36	0.33830209109909
203	75226	37	-0.14641753849451
203	78148	38	-0.29475440009934
203	81079	39	0.50467466433794
203	83973	40	-0.86431597575399
203	86878	41	1.0172213247752
203	89876	42	-0.8902723860452
203	92902	43	0.3937091822513
203	95844	44	0.34981096898839
203	98870	45	-0.62907937567373
203	101934	46	-0.022455867310076
203	104944	47	0.33413223524378
203	108024	48	0.42913220776245
203	111115	49	-0.075412320853135
203	114235	50	-0.63212196162565
203	117360	51	0.26996549243229
203	120485	52	0.48005366977304
203	123653	53	-0.3030014602445
203	126886	54	-0.11475155031396
203	130060	55	-0.31369092059133
203	133194	56	0.41334012270579
203	136352	57	0.21800231025554
203	139525	58	-0.39688517045401
203	142723	59	-0.043042499952163
203	145943	60	0.29137073061429
203	149187	61	-0.073682044167072
203	152353	62	-0.44092525634915
203	155512	63	-0.017770880367607
203	158681	64	0.91021351912059
203	161874	65	-0.091394410701469
203	165128	66	-0.59954291116446
203	168444	67	-0.061218548100442
203	171811	68	0.02597615076229
203	175137	69	0.76354052429087
203	178533	70	-0.91090875375085
203	181951	71	0.91270042769611
203	185360	72	-0.80941140581854
203	188758	73	0.57147653982975
203	192131	74	0.052347789518535
203	195620	75	-0.62694454271765
203	199095	76	0.18589437370017
203	202589	77	-0.56819782830644
203	206074	78	0.90057731338728
203	209555	79	-0.95135654733795
203	213062	80	0.61307100635146
203	216570	81	0.30883282604358
203	220110	82	-0.65190213529348
203	223685	83	0.93752901215993
203	227188	84	-0.52253764844567
203	230709	85	-0.44047105017768
203	234276	86	0.7672342828826
203	237839	87	-0.63077168339505
203	241381	88	-0.053190848225591
203	244932	89	0.19042299850844
203	248444	90	0.71368356491439
203	251926	91	-0.44530805293471
203	255345	92	-0.30276164622046
203	258899	93	-0.1788762412034
203	262431	94	0.70305386628024
203	265938	95	-0.35959008755162
203	269438	96	0.33932200376876
203	272958	97	-0.046987823443487
203	276468	98	-0.46896172990091
203	279976	99	0.3288249692414
203	283483	100	0.39721081429161
203	287016	101	-0.37449037423357
203	290521	102	-0.31524109188467
203	294091	103	0.16416815505363
203	297719	104	0.16061178268865
203	301330	105	-0.28344815410674
204	58334	31	1.3838564103274
204	61108	32	1.3647472208941
204	63884	33	0.973
204	66682	34	1.1454782885056
204	69518	35	1.2715969142296
204	72321	36	1.3143661374183
204	75226	37	0.973
204	78148	38	0.973
204	81079	39	1.3882313116635
204	83973	40	0.973
204	86878	41	1.6352471380886
204	89876	42	0.973
204	92902	43	1.2951013847069
204	95844	44	1.3280088071046
204	98870	45	0.973
204	101934	46	1.1524971881805
204	104944	47	1.2807405944269
204	108024	48	1.3764267073614
204	111115	49	1.1608875406344
204	114235	50	0.973
204	117360	51	1.2593012529186
204	120485	52	1.4049468429209
204	123653	53	0.973
204	126886	54	0.973
204	130060	55	0.973
204	133194	56	1.3288017964178
204	136352	57	1.2813534644069
204	139525	58	0.973
204	142723	59	1.1577398081811
204	145943	60	1.2936322734243
204	149187	61	1.155214414681
204	152353	62	0.973
204	155512	63	1.1547083665086
204	158681	64	1.6258199391577
204	161874	65	1.1586383815008
204	165128	66	0.973
204	168444	67	1.1494268330244
204	171811	68	1.1755009238293
204	175137	69	1.5664872550007
204	178533	70	0.973
204	181951	71	1.6375155033396
204	185360	72	0.973
204	188758	73	1.431512283781
204	192131	74	1.2187622585824
204	195620	75	0.973
204	199095	76	1.2346739905195
204	202589	77	0.973
204	206074	78	1.5534462855289
204	209555	79	0.973
204	213062	80	1.3712209558003
204	216570	81	1.3116516527837
204	220110	82	0.973
204	223685	83	1.6387871383434
204	227188	84	0.973
204	230709	85	0.973
204	234276	86	1.5139099282138
204	237839	87	0.973
204	241381	88	1.1471716979084
204	244932	89	1.2266028102788
204	248444	90	1.540268805492
204	251926	91	0.973
204	255345	92	0.973
204	258899	93	0.973
204	262431	94	1.4863260485857
204	265938	95	0.973
204	269438	96	1.3323171334732
204	272958	97	1.1716802371449
204	276468	98	0.973
204	279976	99	1.3040093859292
204	283483	100	1.3865601437836
204	287016	101	0.973
204	290521	102	0.973
204	294091	103	1.2323764298625
204	297719	104	1.2452455264193
204	301330	105	0.973
205	72321	36	31.761142857143
205	75226	37	31.761142857143
205	78148	38	31.822870903992
205	81079	39	33.132493928596
205	83973	40	34.257953476021
205	86878	41	36.161593875681
205	89876	42	38.251683691044
205	92902	43	40.632326731941
205	95844	44	41.960248148862
205	98870	45	43.500018596925
205	101934	46	45.437493085231
205	104944	47	46.945314601461
205	108024	48	48.342062943106
205	111115	49	50.004878625094
205	114235	50	52.494157477181
205	117360	51	54.08503621912
205	120485	52	55.236229582318
205	123653	53	57.295226985935
205	126886	54	58.797541611467
205	130060	55	60.961216708949
205	133194	56	63.412548731348
205	136352	57	64.749735361878
205	139525	58	66.353236783527
205	142723	59	67.814232341847
205	145943	60	69.643055339485
205	149187	61	71.463650181067
205	152353	62	74.100025101227
205	155512	63	75.428500156879
205	158681	64	77.054209798199
205	161874	65	78.382583462018
205	165128	66	80.667253533567
205	168444	67	82.741291723834
205	171811	68	84.162489037181
205	175137	69	86.302537815249
205	178533	70	88.707626473869
205	181951	71	90.622893712167
205	185360	72	92.428728291613
205	188758	73	94.594309171446
205	192131	74	96.156127992195
205	195620	75	98.276104792609
205	199095	76	100.82380139688
205	202589	77	103.4571502127
205	206074	78	105.53746851366
205	209555	79	106.64804367264
205	213062	80	108.14045379933
205	216570	81	109.03493981432
205	220110	82	111.2824513384
205	223685	83	113.55690731744
205	227188	84	114.75153744919
205	230709	85	117.26137132473
205	234276	86	118.71006024277
205	237839	87	119.76400707937
205	241381	88	121.68570135799
205	244932	89	122.36566796805
205	248444	90	123.07987592468
205	251926	91	124.36265540307
205	255345	92	125.11752036395
205	258899	93	125.73086993361
205	262431	94	126.15384938217
205	265938	95	126.31125738934
205	269438	96	126.46487789046
205	272958	97	126.6
205	276468	98	126.6
205	279976	99	126.6
205	283483	100	126.6
205	287016	101	126.6
205	290521	102	126.6
205	294091	103	126.6
205	297719	104	126.6
205	301330	105	126.6
206	72321	36	226.6
206	75226	37	226.6
206	78148	38	226.6
206	81079	39	226.6
206	83973	40	226.6
206	86878	41	226.6
206	89876	42	226.6
206	92902	43	226.6
206	95844	44	226.6
206	98870	45	226.6
206	101934	46	226.6
206	104944	47	226.6
206	108024	48	226.6
206	111115	49	226.6
206	114235	50	226.6
206	117360	51	226.6
206	120485	52	226.6
206	123653	53	226.6
206	126886	54	226.6
206	130060	55	226.6
206	133194	56	226.6
206	136352	57	226.6
206	139525	58	226.6
206	142723	59	226.6
206	145943	60	226.6
206	149187	61	226.6
206	152353	62	226.6
206	155512	63	226.6
206	158681	64	226.6
206	161874	65	226.6
206	165128	66	226.6
206	168444	67	226.6
206	171811	68	226.6
206	175137	69	226.6
206	178533	70	226.6
206	181951	71	226.6
206	185360	72	226.6
206	188758	73	226.6
206	192131	74	226.6
206	195620	75	226.6
206	199095	76	226.6
206	202589	77	226.6
206	206074	78	226.6
206	209555	79	226.6
206	213062	80	226.6
206	216570	81	226.6
206	220110	82	226.6
206	223685	83	226.6
206	227188	84	226.6
206	230709	85	226.6
206	234276	86	226.46999139389
206	237839	87	226.31942756009
206	241381	88	226.02857918521
206	244932	89	225.62059921917
206	248444	90	225.19207444519
206	251926	91	224.42240675816
206	255345	92	223.20413272674
206	258899	93	222.18188344398
206	262431	94	220.92305432483
206	265938	95	219.82119827465
206	269438	96	218.74585476676
206	272958	97	217.66905326634
206	276468	98	215.01272573492
206	279976	99	211.88879743665
206	283483	100	208.60585998802
206	287016	101	206.57610843131
206	290521	102	203.22427093833
206	294091	103	201.38858421235
206	297719	104	198.17113064212
206	301330	105	195.45550181203
207	75226	37	0.046562104304441
207	78148	38	0.98786219528308
207	81079	39	0.84894577930771
207	83973	40	1.4359356462955
207	86878	41	1.5765763693464
207	89876	42	1.7957436730911
207	92902	43	1.0016648619009
207	95844	44	1.1614647776345
207	98870	45	1.4614570493683
207	101934	46	1.1373653678463
207	104944	47	1.053581723223
207	108024	48	1.2542790704656
207	111115	49	1.8776887892895
207	114235	50	1.2000162924106
207	117360	51	0.86835706275727
207	120485	52	1.5531230415218
207	123653	53	1.1332114632241
207	126886	54	1.6320825088769
207	130060	55	1.8490651031025
207	133194	56	1.0086537083738
207	136352	57	1.209537710296
207	139525	58	1.1020440633874
207	142723	59	1.3795001059771
207	145943	60	1.3732935227454
207	149187	61	1.9886448751204
207	152353	62	1.0020824773237
207	155512	63	1.2262896001339
207	158681	64	1.0020059964154
207	161874	65	1.7233502694871
207	165128	66	1.5644684624858
207	168444	67	1.0720238354988
207	171811	68	1.6142609317321
207	175137	69	1.8141832554247
207	178533	70	1.4447058909573
207	181951	71	1.3621597043239
207	185360	72	1.6335200602189
207	188758	73	1.1780960932374
207	192131	74	1.5991204313468
207	195620	75	1.9217539040837
207	199095	76	1.9863622533157
207	202589	77	1.5692056149447
207	206074	78	0.8377183311276
207	209555	79	1.1257403972898
207	213062	80	0.67472005440801
207	216570	81	1.6953211927352
207	220110	82	1.7156456738421
207	223685	83	0.90112186662461
207	227188	84	1.893193656113
207	230709	85	1.3254489427886
207	234276	86	1.0644804169322
207	237839	87	1.9464703761041
207	241381	88	0.79284638556355
207	244932	89	0.83277206346859
207	248444	90	1.4957309048215
207	251926	91	1.4379346859641
207	255345	92	1.1919506590348
207	258899	93	1.3543913264293
207	262431	94	1.1128684550058
207	265938	95	1.0860909353942
207	269438	96	1.0317956083454
207	272958	97	1.5515931842383
207	276468	98	1.824724473292
207	279976	99	1.9176036498975
207	283483	100	1.1856025448069
207	287016	101	1.9578490029089
207	290521	102	1.0722469193861
207	294091	103	1.8793537209276
207	297719	104	1.586231793277
207	301330	105	1.0751751230564
208	78148	38	0.94130009097864
208	81079	39	-0.13891641597538
208	83973	40	0.58698986698784
208	86878	41	0.14064072305083
208	89876	42	0.21916730374472
208	92902	43	-0.79407881119018
208	95844	44	0.15979991573354
208	98870	45	0.29999227173382
208	101934	46	-0.32409168152199
208	104944	47	-0.083783644623249
208	108024	48	0.20069734724253
208	111115	49	0.62340971882394
208	114235	50	-0.67767249687888
208	117360	51	-0.33165922965335
208	120485	52	0.68476597876449
208	123653	53	-0.41991157829762
208	126886	54	0.49887104565278
208	130060	55	0.21698259422556
208	133194	56	-0.8404113947287
208	136352	57	0.20088400192222
208	139525	58	-0.10749364690855
208	142723	59	0.27745604258962
208	145943	60	-0.0062065832316875
208	149187	61	0.615351352375
208	152353	62	-0.98656239779666
208	155512	63	0.22420712281018
208	158681	64	-0.2242836037185
208	161874	65	0.72134427307174
208	165128	66	-0.15888180700131
208	168444	67	-0.49244462698698
208	171811	68	0.54223709623329
208	175137	69	0.19992232369259
208	178533	70	-0.36947736446746
208	181951	71	-0.082546186633408
208	185360	72	0.27136035589501
208	188758	73	-0.45542396698147
208	192131	74	0.42102433810942
208	195620	75	0.32263347273692
208	199095	76	0.064608349232003
208	202589	77	-0.41715663837105
208	206074	78	-0.7314872838171
208	209555	79	0.2880220661622
208	213062	80	-0.4510203428818
208	216570	81	1.0206011383272
208	220110	82	0.020324481106906
208	223685	83	-0.81452380721748
208	227188	84	0.99207178948839
208	230709	85	-0.56774471332439
208	234276	86	-0.26096852585636
208	237839	87	0.88198995917187
208	241381	88	-1.1536239905406
208	244932	89	0.039925677905036
208	248444	90	0.66295884135291
208	251926	91	-0.05779621885736
208	255345	92	-0.24598402692936
208	258899	93	0.16244066739455
208	262431	94	-0.24152287142351
208	265938	95	-0.026777519611642
208	269438	96	-0.054295327048749
208	272958	97	0.51979757589288
208	276468	98	0.27313128905371
208	279976	99	0.092879176605493
208	283483	100	-0.7320011050906
208	287016	101	0.77224645810202
208	290521	102	-0.88560208352283
208	294091	103	0.80710680154152
208	297719	104	-0.29312192765065
208	301330	105	-0.51105667022057
209	78148	38	1.3818433486193
209	81079	39	0.973
209	83973	40	1.3826770497961
209	86878	41	1.2398531842606
209	89876	42	1.2920115756662
209	92902	43	0.973
209	95844	44	1.2109038772611
209	98870	45	1.2864496679906
209	101934	46	0.973
209	104944	47	1.1396590476176
209	108024	48	1.2313557553551
209	111115	49	1.4832985085575
209	114235	50	0.973
209	117360	51	0.973
209	120485	52	1.4415784690435
209	123653	53	0.973
209	126886	54	1.3853551537262
209	130060	55	1.2964757239521
209	133194	56	0.973
209	136352	57	1.2270689694092
209	139525	58	0.973
209	142723	59	1.2690325039999
209	145943	60	1.174432781528
209	149187	61	1.5015741339683
209	152353	62	0.973
209	155512	63	1.2355877940891
209	158681	64	0.973
209	161874	65	1.4932012865247
209	165128	66	0.973
209	168444	67	0.973
209	171811	68	1.3992107699921
209	175137	69	1.2854774613697
209	178533	70	0.973
209	181951	71	1.1488457654587
209	185360	72	1.2960323677313
209	188758	73	0.973
209	192131	74	1.349777067517
209	195620	75	1.3527863839217
209	199095	76	1.2374750071821
209	202589	77	0.973
209	206074	78	0.973
209	209555	79	1.2425788843996
209	213062	80	0.973
209	216570	81	1.6092218788377
209	220110	82	1.2016328269824
209	223685	83	0.973
209	227188	84	1.6545968519788
209	230709	85	0.973
209	234276	86	0.973
209	237839	87	1.6183199218988
209	241381	88	0.973
209	244932	89	1.1582392827857
209	248444	90	1.421440717772
209	251926	91	1.159611793672
209	255345	92	0.973
209	258899	93	1.2285873331401
209	262431	94	0.973
209	265938	95	1.1555024176015
209	269438	96	1.1463740690177
209	272958	97	1.3795638890766
209	276468	98	1.318697801988
209	279976	99	1.2460800152748
209	283483	100	0.973
209	287016	101	1.569517930337
209	290521	102	0.973
209	294091	103	1.5668314581643
209	297719	104	0.973
209	301330	105	0.973
